*Heading
** Job name: Job-1 Model name: Model-1
** Generated by: Abaqus/CAE 2016
*Preprint, echo=NO, model=NO, history=NO, contact=NO
**
** PARTS
**
*Part, name=indenter
*End Part
**  
*Part, name=material
*Node
      1, 0.0142000001,  0.150000006
      2, 0.0141500002,  0.150000006
      3, 0.0141000003,  0.150000006
      4, 0.0140500003,  0.150000006
      5, 0.0140000004,  0.150000006
      6, 0.0139499996,  0.150000006
      7, 0.0138999997,  0.150000006
      8, 0.0138499998,  0.150000006
      9, 0.0137999998,  0.150000006
     10, 0.0137499999,  0.150000006
     11,       0.0137,  0.150000006
     12, 0.0136500001,  0.150000006
     13, 0.0133999996,  0.150000006
     14, 0.0133499997,  0.150000006
     15, 0.0132999998,  0.150000006
     16, 0.0132499998,  0.150000006
     17, 0.0131000001,  0.150000006
     18, 0.0130500002,  0.150000006
     19, 0.0130000003,  0.150000006
     20, 0.0129500004,  0.150000006
** ... 29111 like lines cut
*Element, type=CAX4
  1, 323, 536, 605, 247
  2, 536, 324, 606, 605
  3, 324, 537, 607, 606
  4, 537, 325, 608, 607
  5, 325, 538, 609, 608
  6, 538, 326, 610, 609
  7, 326, 539, 611, 610
  8, 539, 327, 612, 611
  9, 327, 540, 613, 612
 10, 540, 328, 614, 613
 11, 328, 541, 615, 614
 12, 541, 329, 616, 615
 13, 329, 542, 617, 616
 14, 542, 416, 618, 617
 15, 416, 543, 619, 618
 16, 543, 500, 620, 619
 17, 500, 544, 621, 620
 18, 544, 330, 622, 621
 19, 330, 545, 623, 622
 20, 545, 331, 624, 623
** ... 28650 like lines cut
*Element, type=CAX3
20281, 21299,   325,   537
20287,   538,   325, 21299
20293,   539,   326, 21070
20299,   540,   327, 21253
20305,   541,   328, 21242
20311,   542,   329, 21275
20317, 21281,   500,   543
20323, 21287,   330,   544
20329,   545,   330, 21287
20335,   419,   331, 21293
20341,   497,   332, 21282
20347,   546,   333, 21248
20353, 21271,   335,   547
20359, 21330,   336,   548
20365, 21334,   337,   549
20371, 21338,   338,   550
20377, 21342,   339,   551
20383,   552,   339, 21342
20389,   553,   340, 21346
20395,   554,   341, 21348
** ... 269 like lines cut
*Node
  29132,           0.,  0.250999987,           0.
*Nset, nset=material-RefPt_, internal
29132, 
*Nset, nset=Set-1, generate
     1,  29131,      1
*Elset, elset=Set-1, generate
     1,  28959,      1
** Section: material
*Solid Section, elset=Set-1, material=elastic
,
*End Part
**  
**
** ASSEMBLY
**
*Assembly, name=Assembly
**  
*Instance, name=indenter-1, part=indenter
*Surface, type=SEGMENTS, name=Surf-1
START,          0.1,         0.25
 CIRCL,           0.,         0.15,           0.,         0.25
*End Instance
**  
*Instance, name=material-1, part=material
*End Instance
**  
*Nset, nset=Set-2, instance=material-1
 21547, 21554, 21559, 21562, 21571, 21573, 21575, 21580, 21587, 21588, 21589, 21590, 21595, 21600, 21601, 21603
 21604, 21605, 21607, 21610, 21612, 21614, 21615, 21622, 21627, 21654, 21663, 21664, 21665, 21666, 21667, 21668
 21669, 21670, 21671, 21672, 21674, 21675, 21676
*Elset, elset=Set-2, instance=material-1, generate
 22223,  22260,      1
*Nset, nset=Set-3, instance=material-1
 29132,
*Nset, nset=Set-4, instance=material-1
   247,   317,   323,   957,   958,   959,   960,   961,   962,   963,   964,   965,   966,   967,   968,   969
   970,   971,   972,   973,   974,   975,   976,   977,   978,   979,   980,   981,   982,   983,   984,   985
   986,   987,   988,   989,   990,   991,   992,   993,   994,   995,   996,   997,   998,   999,  1000,  1001
  1002,  1003,  1004,  1005,  1006,  1007,  1008,  1009,  1010,  1011,  1012,  1013,  1014,  1015,  1016,  1017
  1018,  1019,  1020,  1021,  1022,  1023,  1024,  1025,  1026,  1027,  1028,  1029,  1030,  1031,  1032,  1033
  1034,  1035,  1036,  1037,  1038,  1039,  1040,  1041,  1042,  1043,  1044,  1045,  1046,  1249,  1265,  1274
  1331,  1339,  1350,  1503,  1516, 21232, 21233, 21234, 21235, 21569, 21594, 21596, 21599, 21601, 21613, 21618
 21619, 21621, 21623, 21624, 21626, 21629, 21630, 21647, 21648, 21649, 21650, 21651, 21652, 21655, 21656, 21657
 21658, 21659, 21660, 21661, 21662, 22941, 22946, 22960, 22961, 22963, 22964, 22965, 22966, 22967, 22968, 22969
 22970, 22972, 22973, 22974, 22975, 22976, 22979, 22985, 22988
*Elset, elset=Set-4, instance=material-1
     1,   301,   800,  1000,  1200,  1400,  1600,  1800,  2000,  2200,  2400,  2600,  2800,  3000,  3200,  3400
  3600,  3800,  4000,  4200,  4400,  4600,  4800,  5000,  5200,  5400,  5600,  5800,  6000,  6200,  6400,  6600
  6800,  7000,  7200,  7400,  7600,  7800,  8000,  8200,  8400,  8600,  8800,  9000,  9200,  9400,  9600,  9800
 10000, 10200, 10400, 10600, 10800, 11000, 11200, 11400, 11600, 11800, 12000, 12200, 12400, 12600, 12800, 13000
 13200, 13400, 13600, 13800, 14000, 14200, 14400, 14600, 14800, 15000, 15200, 15400, 15600, 15800, 16000, 16200
 16400, 16600, 16800, 17000, 17200, 17400, 17600, 17800, 18000, 18200, 18400, 18600, 18800, 19000, 19200, 19400
 19600, 19800, 20000, 21224, 21225, 21226, 21227, 21228, 21272, 21310, 21348, 21386, 21424, 21462, 21500, 21538
 21576, 21614, 21652, 21690, 21728, 21766, 21804, 21842, 21880, 21918, 21956, 21994, 22032, 22070, 22108, 22146
 22184, 22222, 22260, 22642, 22658, 22662, 22698, 22859, 22862, 22863, 22864, 22865, 22866, 22867, 22868, 22870
 22872, 22873, 23048, 23051, 23052, 23055, 23059, 23665
*Nset, nset=Set-5, instance=material-1
     1,     2,     3,     4,     5,     6,     7,     8,     9,    10,    11,    12,    13,    14,    15,    16
    17,    18,    19,    20,    21,    22,    23,    24,    25,    26,    27,    28,    29,    30,    31,    32
    33,    34,    35,    36,    37,    38,    39,    40,    41,    42,    43,    44,    45,    46,    47,    48
    49,    50,    51,    52,    53,    54,    55,    56,    57,    58,    59,    60,    61,    62,    63,    64
    65,    66,    67,    68,    69,    70,    71,    72,    73,    74,    75,    76,    77,    78,    79,    80
    81,    82,    83,    84,    85,    86,    87,    88,    89,    90,    91,    92,    93,    94,    95,    96
    97,    98,    99,   100,   101,   102,   103,   104,   105,   106,   107,   108,   109,   110,   111,   112
   113,   114,   115,   116,   117,   118,   119,   120,   121,   122,   123,   124,   125,   126,   127,   128
   129,   130,   131,   132,   133,   134,   135,   136,   137,   138,   139,   140,   141,   142,   143,   144
   145,   146,   147,   148,   149,   150,   151,   152,   153,   154,   155,   156,   157,   158,   159,   160
   161,   162,   163,   164,   165,   166,   167,   168,   169,   170,   171,   172,   173,   174,   175,   176
   177,   178,   179,   180,   181,   182,   183,   184,   185,   186,   187,   188,   189,   190,   191,   192
   193,   194,   195,   196,   197,   198,   199,   200,   201,   202,   203,   204,   205,   206,   207,   208
   209,   210,   211,   212,   213,   214,   215,   216,   217,   218,   219,   220,   221,   222,   223,   224
   225,   226,   227,   228,   229,   230,   231,   232,   233,   234,   235,   236,   237,   238,   239,   240
   241,   242,   243,   244,   245,   246,   316,   317,   321,   384,   385,   386,   387,   394,   395,   396
   397,   400,   402,   403,   404,   405,   408,   409,   412,   413,   414,   421,   422,   426,   427,   428
   429,   430,   431,   432,   433,   434,   435,   436,   437,   438,   492,   493,   494,   495,   502,   503
   504,   507,   509,   510,   514,   517,   518,   519,   520,   527,   528,   529,   530, 20643, 20644, 20646
 20647, 20648, 20649, 20650, 20651, 20652, 20653, 20654, 20655, 20656, 20657, 20658, 20659, 20660, 20661, 20662
** ... 6 like lines cut
*Elset, elset=Set-5, instance=material-1
   301,   302,   303,   304,   305,   306,   307,   308,   309,   310,   311,   312,   313,   314,   315,   316
   317,   318,   319,   320,   321,   322,   323,   324,   325,   326,   327,   328,   329,   330,   331,   332
   333,   334,   335,   336,   337,   338,   339,   340,   341,   342,   343,   344,   345,   346,   347,   348
   349,   350,   351,   352,   353,   354,   355,   356,   357,   358,   359,   360,   361,   362,   363,   364
   365,   366,   367,   368,   369,   370,   371,   372,   373,   374,   375,   376,   377,   378,   379,   380
   381,   382,   383,   384,   385,   386,   387,   388,   389,   390,   391,   392,   393,   394,   395,   396
   397,   398,   399,   400,   401,   402,   403,   404,   405,   406,   407,   408,   409,   410,   411,   412
   413,   414,   415,   416,   417,   418,   419,   420,   421,   422,   423,   424,   425,   426,   427,   428
   429,   430,   431,   432,   433,   434,   435,   436,   437,   438,   439,   440,   441,   442,   443,   444
   445,   446,   447,   448,   449,   450,   451,   452,   453,   454,   455,   456,   457,   458,   459,   460
   461,   462,   463,   464,   465,   466,   467,   468,   469,   470,   471,   472,   473,   474,   475,   476
   477,   478,   479,   480,   481,   482,   483,   484,   485,   486,   487,   488,   489,   490,   491,   492
   493,   494,   495,   496,   497,   498,   499,   500,   501,   502,   503,   504,   505,   506,   507,   508
   509,   510,   511,   512,   513,   514,   515,   516,   517,   518,   519,   520,   521,   522,   523,   524
   525,   526,   527,   528,   529,   530,   531,   532,   533,   534,   535,   536,   537,   538,   539,   540
   541,   542,   543,   544,   545,   546,   547,   548,   549,   550,   551,   552,   553,   554,   555,   556
   557,   558,   559,   560,   561,   562,   563,   564,   565,   566,   567,   568,   569,   570,   571,   572
   573,   574,   575,   576,   577,   578,   579,   580,   581,   582,   583,   584,   585,   586,   587,   588
   589,   590,   591,   592,   593,   594,   595,   596,   597,   598,   599,   600, 20001, 20003, 20005, 20007
 20009, 20011, 20013, 20015, 20017, 20019, 20021, 20023, 20025, 20027, 20029, 20031, 20033, 20035, 20037, 20039
** ... 6 like lines cut
*Nset, nset=_PickedSet7, internal, instance=material-1
 29132,
*Elset, elset=_s_Surf-2_S3, internal, instance=material-1, generate
 301,  600,    1
*Elset, elset=_s_Surf-2_S4, internal, instance=material-1
 20001, 20003, 20005, 20007, 20009, 20011, 20013, 20015, 20017, 20019, 20021, 20023, 20025, 20027, 20029, 20031
 20033, 20035, 20037, 20039, 20041, 20043, 20045, 20047, 20049, 20051, 20053, 20055, 20057, 20059, 20061, 20063
 20065, 20067, 20069, 20071, 20073, 20075, 20077, 20079, 22406, 22411, 22416, 22421, 22426, 22431, 22436, 22441
 22446, 22451, 22456, 22461, 22466, 22471, 22476, 22481, 22486, 22491, 22496, 22501, 22506, 22511, 22516, 22521
 22526, 22531, 22536, 22541, 22546, 27341, 27367, 27369, 27371, 27372, 27414, 28914, 28916, 28918, 28920, 28922
 28924, 28926, 28928, 28930, 28932, 28934, 28936, 28938, 28940, 28942, 28944, 28946, 28948, 28950, 28952
*Elset, elset=_s_Surf-2_S2, internal, instance=material-1
 27242, 27247, 27255, 27256, 27262, 27479, 27482, 27484
*Elset, elset=_s_Surf-2_S1, internal, instance=material-1
 27261,
*Surface, type=ELEMENT, name=s_Surf-2
_s_Surf-2_S3, S3
_s_Surf-2_S4, S4
_s_Surf-2_S2, S2
_s_Surf-2_S1, S1
** Constraint: rigidbody
*Rigid Body, ref node=_PickedSet7, analytical surface=indenter-1.Surf-1
*End Assembly
** 
** MATERIALS
** 
*Material, name=elastic
*Elastic
85570.00000000,0.3
*Plastic
891.75000000,0.00000000e+00
891.75000000,1.00000000e-300
891.75000000,1.02321524e-300
891.75000000,1.04696942e-300
891.75000000,1.07127507e-300
891.75000000,1.09614497e-300
891.75000000,1.12159224e-300
891.75000000,1.14763027e-300
891.75000000,1.17427278e-300
891.75000000,1.20153380e-300
891.75000000,1.22942769e-300
891.75000000,1.25796914e-300
891.75000000,1.28717320e-300
891.75000000,1.31705523e-300
891.75000000,1.34763098e-300
891.75000000,1.37891655e-300
891.75000000,1.41092843e-300
891.75000000,1.44368347e-300
891.75000000,1.47719892e-300
891.75000000,1.51149244e-300
** ... 29981 like lines cut
** 
** INTERACTION PROPERTIES
** 
*Surface Interaction, name=IntProp-1
1.,
*Friction
0.,
*Surface Behavior, pressure-overclosure=HARD
** 
** BOUNDARY CONDITIONS
** 
** Name: BC-1 Type: Displacement/Rotation
*Boundary
Set-2, 2, 2
** Name: BC-3 Type: Displacement/Rotation
*Boundary
Set-4, 1, 1
** 
** INTERACTIONS
** 
** Interaction: Int-1
*Contact Pair, interaction=IntProp-1, type=SURFACE TO SURFACE
s_Surf-2, indenter-1.Surf-1
** ----------------------------------------------------------------
** 
** STEP: load-1
**
*Step, name=load-1, nlgeom=YES, inc=1000000
*Static
0.02, 0.0946547884187, 1e-07, 0.02
**
** BOUNDARY CONDITIONS
** 
** Name: BC-1 Type: Displacement/Rotation
*Boundary
Set-3, 1, 1
Set-3, 2, 2, -4.73273942094e-07
Set-3, 6, 6
** 
** CONTROLS
** 
*Controls, reset
** 
** OUTPUT REQUESTS
** 
*Restart, write, frequency=0
** 
** FIELD OUTPUT: F-Output-1
** 
*Output, field
*Node Output, nset=Set-3
RF, U
*End Step
** ----------------------------------------------------------------
** 
** STEP: unload-1
**
*Step, name=unload-1, nlgeom=YES, inc=1000000
*Static
0.005, 0.075723830735, 1e-07, 0.005
**
** BOUNDARY CONDITIONS
** 
** Name: BC-1 Type: Displacement/Rotation
*Boundary
Set-3, 1, 1
Set-3, 2, 2, -9.46547884187e-08
Set-3, 6, 6
** 
** CONTROLS
** 
*Controls, reset
** 
** OUTPUT REQUESTS
** 
*Restart, write, frequency=0
** 
** FIELD OUTPUT: F-Output-1
** 
*Output, field
*Node Output, nset=Set-3
RF, U
*End Step
** ----------------------------------------------------------------
** 
** STEP: load-2
**
*Step, name=load-2, nlgeom=YES, inc=1000000
*Static
0.02, 0.0946547884187, 1e-07, 0.02
**
** BOUNDARY CONDITIONS
** 
** Name: BC-2 Type: Displacement/Rotation
*Boundary
Set-3, 1, 1
Set-3, 2, 2, -5.67928730512e-07
Set-3, 6, 6
** 
** CONTROLS
** 
*Controls, reset
** 
** OUTPUT REQUESTS
** 
*Restart, write, frequency=0
** 
** FIELD OUTPUT: F-Output-2
** 
*Output, field
*Node Output, nset=Set-3
RF, U
*End Step
** ----------------------------------------------------------------
** 
** STEP: unload-2
**
*Step, name=unload-2, nlgeom=YES, inc=1000000
*Static
0.005, 0.075723830735, 1e-07, 0.005
**
** BOUNDARY CONDITIONS
** 
** Name: BC-2 Type: Displacement/Rotation
*Boundary
Set-3, 1, 1
Set-3, 2, 2, -1.89309576837e-07
Set-3, 6, 6
** 
** CONTROLS
** 
*Controls, reset
** 
** OUTPUT REQUESTS
** 
*Restart, write, frequency=0
** 
** FIELD OUTPUT: F-Output-2
** 
*Output, field
*Node Output, nset=Set-3
RF, U
*End Step
** ----------------------------------------------------------------
** 
** STEP: load-3
**
*Step, name=load-3, nlgeom=YES, inc=1000000
*Static
0.02, 0.0946547884187, 1e-07, 0.02
**
** BOUNDARY CONDITIONS
** 
** Name: BC-3 Type: Displacement/Rotation
*Boundary
Set-3, 1, 1
Set-3, 2, 2, -6.62583518931e-07
Set-3, 6, 6
** 
** CONTROLS
** 
*Controls, reset
** 
** OUTPUT REQUESTS
** 
*Restart, write, frequency=0
** 
** FIELD OUTPUT: F-Output-3
** 
*Output, field
*Node Output, nset=Set-3
RF, U
*End Step
** ----------------------------------------------------------------
** 
** STEP: unload-3
**
*Step, name=unload-3, nlgeom=YES, inc=1000000
*Static
0.005, 0.075723830735, 1e-07, 0.005
**
** BOUNDARY CONDITIONS
** 
** Name: BC-3 Type: Displacement/Rotation
*Boundary
Set-3, 1, 1
Set-3, 2, 2, -2.83964365256e-07
Set-3, 6, 6
** 
** CONTROLS
** 
*Controls, reset
** 
** OUTPUT REQUESTS
** 
*Restart, write, frequency=0
** 
** FIELD OUTPUT: F-Output-3
** 
*Output, field
*Node Output, nset=Set-3
RF, U
*End Step
** ----------------------------------------------------------------
** 
** STEP: load-4
**
*Step, name=load-4, nlgeom=YES, inc=1000000
*Static
0.02, 0.0946547884187, 1e-07, 0.02
**
** BOUNDARY CONDITIONS
** 
** Name: BC-4 Type: Displacement/Rotation
*Boundary
Set-3, 1, 1
Set-3, 2, 2, -7.5723830735e-07
Set-3, 6, 6
** 
** CONTROLS
** 
*Controls, reset
** 
** OUTPUT REQUESTS
** 
*Restart, write, frequency=0
** 
** FIELD OUTPUT: F-Output-4
** 
*Output, field
*Node Output, nset=Set-3
RF, U
*End Step
** ----------------------------------------------------------------
** 
** STEP: unload-4
**
*Step, name=unload-4, nlgeom=YES, inc=1000000
*Static
0.005, 0.075723830735, 1e-07, 0.005
**
** BOUNDARY CONDITIONS
** 
** Name: BC-4 Type: Displacement/Rotation
*Boundary
Set-3, 1, 1
Set-3, 2, 2, -3.78619153675e-07
Set-3, 6, 6
** 
** CONTROLS
** 
*Controls, reset
** 
** OUTPUT REQUESTS
** 
*Restart, write, frequency=0
** 
** FIELD OUTPUT: F-Output-4
** 
*Output, field
*Node Output, nset=Set-3
RF, U
*End Step
** ----------------------------------------------------------------
** 
** STEP: load-5
**
*Step, name=load-5, nlgeom=YES, inc=1000000
*Static
0.02, 0.0946547884187, 1e-07, 0.02
**
** BOUNDARY CONDITIONS
** 
** Name: BC-5 Type: Displacement/Rotation
*Boundary
Set-3, 1, 1
Set-3, 2, 2, -8.51893095768e-07
Set-3, 6, 6
** 
** CONTROLS
** 
*Controls, reset
** 
** OUTPUT REQUESTS
** 
*Restart, write, frequency=0
** 
** FIELD OUTPUT: F-Output-5
** 
*Output, field
*Node Output, nset=Set-3
RF, U
*End Step
** ----------------------------------------------------------------
** 
** STEP: unload-5
**
*Step, name=unload-5, nlgeom=YES, inc=1000000
*Static
0.005, 0.075723830735, 1e-07, 0.005
**
** BOUNDARY CONDITIONS
** 
** Name: BC-5 Type: Displacement/Rotation
*Boundary
Set-3, 1, 1
Set-3, 2, 2, -4.73273942094e-07
Set-3, 6, 6
** 
** CONTROLS
** 
*Controls, reset
** 
** OUTPUT REQUESTS
** 
*Restart, write, frequency=0
** 
** FIELD OUTPUT: F-Output-5
** 
*Output, field
*Node Output, nset=Set-3
RF, U
*End Step
** ----------------------------------------------------------------
** 
** STEP: load-6
**
*Step, name=load-6, nlgeom=YES, inc=1000000
*Static
0.02, 0.0946547884187, 1e-07, 0.02
**
** BOUNDARY CONDITIONS
** 
** Name: BC-6 Type: Displacement/Rotation
*Boundary
Set-3, 1, 1
Set-3, 2, 2, -9.46547884187e-07
Set-3, 6, 6
** 
** CONTROLS
** 
*Controls, reset
** 
** OUTPUT REQUESTS
** 
*Restart, write, frequency=0
** 
** FIELD OUTPUT: F-Output-6
** 
*Output, field
*Node Output, nset=Set-3
RF, U
*End Step
** ----------------------------------------------------------------
** 
** STEP: unload-6
**
*Step, name=unload-6, nlgeom=YES, inc=1000000
*Static
0.005, 0.075723830735, 1e-07, 0.005
**
** BOUNDARY CONDITIONS
** 
** Name: BC-6 Type: Displacement/Rotation
*Boundary
Set-3, 1, 1
Set-3, 2, 2, -5.67928730512e-07
Set-3, 6, 6
** 
** CONTROLS
** 
*Controls, reset
** 
** OUTPUT REQUESTS
** 
*Restart, write, frequency=0
** 
** FIELD OUTPUT: F-Output-6
** 
*Output, field
*Node Output, nset=Set-3
RF, U
*End Step
** ----------------------------------------------------------------
** 
** STEP: load-7
**
*Step, name=load-7, nlgeom=YES, inc=1000000
*Static
0.02, 0.0946547884187, 1e-07, 0.02
**
** BOUNDARY CONDITIONS
** 
** Name: BC-7 Type: Displacement/Rotation
*Boundary
Set-3, 1, 1
Set-3, 2, 2, -1.04120267261e-06
Set-3, 6, 6
** 
** CONTROLS
** 
*Controls, reset
** 
** OUTPUT REQUESTS
** 
*Restart, write, frequency=0
** 
** FIELD OUTPUT: F-Output-7
** 
*Output, field
*Node Output, nset=Set-3
RF, U
*End Step
** ----------------------------------------------------------------
** 
** STEP: unload-7
**
*Step, name=unload-7, nlgeom=YES, inc=1000000
*Static
0.005, 0.075723830735, 1e-07, 0.005
**
** BOUNDARY CONDITIONS
** 
** Name: BC-7 Type: Displacement/Rotation
*Boundary
Set-3, 1, 1
Set-3, 2, 2, -6.62583518931e-07
Set-3, 6, 6
** 
** CONTROLS
** 
*Controls, reset
** 
** OUTPUT REQUESTS
** 
*Restart, write, frequency=0
** 
** FIELD OUTPUT: F-Output-7
** 
*Output, field
*Node Output, nset=Set-3
RF, U
*End Step
** ----------------------------------------------------------------
** 
** STEP: load-8
**
*Step, name=load-8, nlgeom=YES, inc=1000000
*Static
0.02, 0.0946547884187, 1e-07, 0.02
**
** BOUNDARY CONDITIONS
** 
** Name: BC-8 Type: Displacement/Rotation
*Boundary
Set-3, 1, 1
Set-3, 2, 2, -1.13585746102e-06
Set-3, 6, 6
** 
** CONTROLS
** 
*Controls, reset
** 
** OUTPUT REQUESTS
** 
*Restart, write, frequency=0
** 
** FIELD OUTPUT: F-Output-8
** 
*Output, field
*Node Output, nset=Set-3
RF, U
*End Step
** ----------------------------------------------------------------
** 
** STEP: unload-8
**
*Step, name=unload-8, nlgeom=YES, inc=1000000
*Static
0.005, 0.075723830735, 1e-07, 0.005
**
** BOUNDARY CONDITIONS
** 
** Name: BC-8 Type: Displacement/Rotation
*Boundary
Set-3, 1, 1
Set-3, 2, 2, -7.5723830735e-07
Set-3, 6, 6
** 
** CONTROLS
** 
*Controls, reset
** 
** OUTPUT REQUESTS
** 
*Restart, write, frequency=0
** 
** FIELD OUTPUT: F-Output-8
** 
*Output, field
*Node Output, nset=Set-3
RF, U
*End Step
** ----------------------------------------------------------------
** 
** STEP: load-9
**
*Step, name=load-9, nlgeom=YES, inc=1000000
*Static
0.02, 0.0946547884187, 1e-07, 0.02
**
** BOUNDARY CONDITIONS
** 
** Name: BC-9 Type: Displacement/Rotation
*Boundary
Set-3, 1, 1
Set-3, 2, 2, -1.23051224944e-06
Set-3, 6, 6
** 
** CONTROLS
** 
*Controls, reset
** 
** OUTPUT REQUESTS
** 
*Restart, write, frequency=0
** 
** FIELD OUTPUT: F-Output-9
** 
*Output, field
*Node Output, nset=Set-3
RF, U
*End Step
** ----------------------------------------------------------------
** 
** STEP: unload-9
**
*Step, name=unload-9, nlgeom=YES, inc=1000000
*Static
0.005, 0.075723830735, 1e-07, 0.005
**
** BOUNDARY CONDITIONS
** 
** Name: BC-9 Type: Displacement/Rotation
*Boundary
Set-3, 1, 1
Set-3, 2, 2, -8.51893095768e-07
Set-3, 6, 6
** 
** CONTROLS
** 
*Controls, reset
** 
** OUTPUT REQUESTS
** 
*Restart, write, frequency=0
** 
** FIELD OUTPUT: F-Output-9
** 
*Output, field
*Node Output, nset=Set-3
RF, U
*End Step
** ----------------------------------------------------------------
** 
** STEP: load-10
**
*Step, name=load-10, nlgeom=YES, inc=1000000
*Static
0.02, 0.0946547884187, 1e-07, 0.02
**
** BOUNDARY CONDITIONS
** 
** Name: BC-10 Type: Displacement/Rotation
*Boundary
Set-3, 1, 1
Set-3, 2, 2, -1.32516703786e-06
Set-3, 6, 6
** 
** CONTROLS
** 
*Controls, reset
** 
** OUTPUT REQUESTS
** 
*Restart, write, frequency=0
** 
** FIELD OUTPUT: F-Output-10
** 
*Output, field
*Node Output, nset=Set-3
RF, U
*End Step
** ----------------------------------------------------------------
** 
** STEP: unload-10
**
*Step, name=unload-10, nlgeom=YES, inc=1000000
*Static
0.005, 0.075723830735, 1e-07, 0.005
**
** BOUNDARY CONDITIONS
** 
** Name: BC-10 Type: Displacement/Rotation
*Boundary
Set-3, 1, 1
Set-3, 2, 2, -9.46547884187e-07
Set-3, 6, 6
** 
** CONTROLS
** 
*Controls, reset
** 
** OUTPUT REQUESTS
** 
*Restart, write, frequency=0
** 
** FIELD OUTPUT: F-Output-10
** 
*Output, field
*Node Output, nset=Set-3
RF, U
*End Step
** ----------------------------------------------------------------
** 
** STEP: load-11
**
*Step, name=load-11, nlgeom=YES, inc=1000000
*Static
0.02, 0.0946547884187, 1e-07, 0.02
**
** BOUNDARY CONDITIONS
** 
** Name: BC-11 Type: Displacement/Rotation
*Boundary
Set-3, 1, 1
Set-3, 2, 2, -1.41982182628e-06
Set-3, 6, 6
** 
** CONTROLS
** 
*Controls, reset
** 
** OUTPUT REQUESTS
** 
*Restart, write, frequency=0
** 
** FIELD OUTPUT: F-Output-11
** 
*Output, field
*Node Output, nset=Set-3
RF, U
*End Step
** ----------------------------------------------------------------
** 
** STEP: unload-11
**
*Step, name=unload-11, nlgeom=YES, inc=1000000
*Static
0.005, 0.075723830735, 1e-07, 0.005
**
** BOUNDARY CONDITIONS
** 
** Name: BC-11 Type: Displacement/Rotation
*Boundary
Set-3, 1, 1
Set-3, 2, 2, -1.04120267261e-06
Set-3, 6, 6
** 
** CONTROLS
** 
*Controls, reset
** 
** OUTPUT REQUESTS
** 
*Restart, write, frequency=0
** 
** FIELD OUTPUT: F-Output-11
** 
*Output, field
*Node Output, nset=Set-3
RF, U
*End Step
** ----------------------------------------------------------------
** 
** STEP: load-12
**
*Step, name=load-12, nlgeom=YES, inc=1000000
*Static
0.02, 0.0946547884187, 1e-07, 0.02
**
** BOUNDARY CONDITIONS
** 
** Name: BC-12 Type: Displacement/Rotation
*Boundary
Set-3, 1, 1
Set-3, 2, 2, -1.5144766147e-06
Set-3, 6, 6
** 
** CONTROLS
** 
*Controls, reset
** 
** OUTPUT REQUESTS
** 
*Restart, write, frequency=0
** 
** FIELD OUTPUT: F-Output-12
** 
*Output, field
*Node Output, nset=Set-3
RF, U
*End Step
** ----------------------------------------------------------------
** 
** STEP: unload-12
**
*Step, name=unload-12, nlgeom=YES, inc=1000000
*Static
0.005, 0.075723830735, 1e-07, 0.005
**
** BOUNDARY CONDITIONS
** 
** Name: BC-12 Type: Displacement/Rotation
*Boundary
Set-3, 1, 1
Set-3, 2, 2, -1.13585746102e-06
Set-3, 6, 6
** 
** CONTROLS
** 
*Controls, reset
** 
** OUTPUT REQUESTS
** 
*Restart, write, frequency=0
** 
** FIELD OUTPUT: F-Output-12
** 
*Output, field
*Node Output, nset=Set-3
RF, U
*End Step
** ----------------------------------------------------------------
** 
** STEP: load-13
**
*Step, name=load-13, nlgeom=YES, inc=1000000
*Static
0.02, 0.0946547884187, 1e-07, 0.02
**
** BOUNDARY CONDITIONS
** 
** Name: BC-13 Type: Displacement/Rotation
*Boundary
Set-3, 1, 1
Set-3, 2, 2, -1.60913140312e-06
Set-3, 6, 6
** 
** CONTROLS
** 
*Controls, reset
** 
** OUTPUT REQUESTS
** 
*Restart, write, frequency=0
** 
** FIELD OUTPUT: F-Output-13
** 
*Output, field
*Node Output, nset=Set-3
RF, U
*End Step
** ----------------------------------------------------------------
** 
** STEP: unload-13
**
*Step, name=unload-13, nlgeom=YES, inc=1000000
*Static
0.005, 0.075723830735, 1e-07, 0.005
**
** BOUNDARY CONDITIONS
** 
** Name: BC-13 Type: Displacement/Rotation
*Boundary
Set-3, 1, 1
Set-3, 2, 2, -1.23051224944e-06
Set-3, 6, 6
** 
** CONTROLS
** 
*Controls, reset
** 
** OUTPUT REQUESTS
** 
*Restart, write, frequency=0
** 
** FIELD OUTPUT: F-Output-13
** 
*Output, field
*Node Output, nset=Set-3
RF, U
*End Step
** ----------------------------------------------------------------
** 
** STEP: load-14
**
*Step, name=load-14, nlgeom=YES, inc=1000000
*Static
0.02, 0.0946547884187, 1e-07, 0.02
**
** BOUNDARY CONDITIONS
** 
** Name: BC-14 Type: Displacement/Rotation
*Boundary
Set-3, 1, 1
Set-3, 2, 2, -1.70378619154e-06
Set-3, 6, 6
** 
** CONTROLS
** 
*Controls, reset
** 
** OUTPUT REQUESTS
** 
*Restart, write, frequency=0
** 
** FIELD OUTPUT: F-Output-14
** 
*Output, field
*Node Output, nset=Set-3
RF, U
*End Step
** ----------------------------------------------------------------
** 
** STEP: unload-14
**
*Step, name=unload-14, nlgeom=YES, inc=1000000
*Static
0.005, 0.075723830735, 1e-07, 0.005
**
** BOUNDARY CONDITIONS
** 
** Name: BC-14 Type: Displacement/Rotation
*Boundary
Set-3, 1, 1
Set-3, 2, 2, -1.32516703786e-06
Set-3, 6, 6
** 
** CONTROLS
** 
*Controls, reset
** 
** OUTPUT REQUESTS
** 
*Restart, write, frequency=0
** 
** FIELD OUTPUT: F-Output-14
** 
*Output, field
*Node Output, nset=Set-3
RF, U
*End Step
** ----------------------------------------------------------------
** 
** STEP: load-15
**
*Step, name=load-15, nlgeom=YES, inc=1000000
*Static
0.02, 0.0946547884187, 1e-07, 0.02
**
** BOUNDARY CONDITIONS
** 
** Name: BC-15 Type: Displacement/Rotation
*Boundary
Set-3, 1, 1
Set-3, 2, 2, -1.79844097996e-06
Set-3, 6, 6
** 
** CONTROLS
** 
*Controls, reset
** 
** OUTPUT REQUESTS
** 
*Restart, write, frequency=0
** 
** FIELD OUTPUT: F-Output-15
** 
*Output, field
*Node Output, nset=Set-3
RF, U
*End Step
** ----------------------------------------------------------------
** 
** STEP: unload-15
**
*Step, name=unload-15, nlgeom=YES, inc=1000000
*Static
0.005, 0.075723830735, 1e-07, 0.005
**
** BOUNDARY CONDITIONS
** 
** Name: BC-15 Type: Displacement/Rotation
*Boundary
Set-3, 1, 1
Set-3, 2, 2, -1.41982182628e-06
Set-3, 6, 6
** 
** CONTROLS
** 
*Controls, reset
** 
** OUTPUT REQUESTS
** 
*Restart, write, frequency=0
** 
** FIELD OUTPUT: F-Output-15
** 
*Output, field
*Node Output, nset=Set-3
RF, U
*End Step
** ----------------------------------------------------------------
** 
** STEP: load-16
**
*Step, name=load-16, nlgeom=YES, inc=1000000
*Static
0.02, 0.0946547884187, 1e-07, 0.02
**
** BOUNDARY CONDITIONS
** 
** Name: BC-16 Type: Displacement/Rotation
*Boundary
Set-3, 1, 1
Set-3, 2, 2, -1.89309576837e-06
Set-3, 6, 6
** 
** CONTROLS
** 
*Controls, reset
** 
** OUTPUT REQUESTS
** 
*Restart, write, frequency=0
** 
** FIELD OUTPUT: F-Output-16
** 
*Output, field
*Node Output, nset=Set-3
RF, U
*End Step
** ----------------------------------------------------------------
** 
** STEP: unload-16
**
*Step, name=unload-16, nlgeom=YES, inc=1000000
*Static
0.005, 0.075723830735, 1e-07, 0.005
**
** BOUNDARY CONDITIONS
** 
** Name: BC-16 Type: Displacement/Rotation
*Boundary
Set-3, 1, 1
Set-3, 2, 2, -1.5144766147e-06
Set-3, 6, 6
** 
** CONTROLS
** 
*Controls, reset
** 
** OUTPUT REQUESTS
** 
*Restart, write, frequency=0
** 
** FIELD OUTPUT: F-Output-16
** 
*Output, field
*Node Output, nset=Set-3
RF, U
*End Step
** ----------------------------------------------------------------
** 
** STEP: load-17
**
*Step, name=load-17, nlgeom=YES, inc=1000000
*Static
0.02, 0.0946547884187, 1e-07, 0.02
**
** BOUNDARY CONDITIONS
** 
** Name: BC-17 Type: Displacement/Rotation
*Boundary
Set-3, 1, 1
Set-3, 2, 2, -1.98775055679e-06
Set-3, 6, 6
** 
** CONTROLS
** 
*Controls, reset
** 
** OUTPUT REQUESTS
** 
*Restart, write, frequency=0
** 
** FIELD OUTPUT: F-Output-17
** 
*Output, field
*Node Output, nset=Set-3
RF, U
*End Step
** ----------------------------------------------------------------
** 
** STEP: unload-17
**
*Step, name=unload-17, nlgeom=YES, inc=1000000
*Static
0.005, 0.075723830735, 1e-07, 0.005
**
** BOUNDARY CONDITIONS
** 
** Name: BC-17 Type: Displacement/Rotation
*Boundary
Set-3, 1, 1
Set-3, 2, 2, -1.60913140312e-06
Set-3, 6, 6
** 
** CONTROLS
** 
*Controls, reset
** 
** OUTPUT REQUESTS
** 
*Restart, write, frequency=0
** 
** FIELD OUTPUT: F-Output-17
** 
*Output, field
*Node Output, nset=Set-3
RF, U
*End Step
** ----------------------------------------------------------------
** 
** STEP: load-18
**
*Step, name=load-18, nlgeom=YES, inc=1000000
*Static
0.02, 0.0946547884187, 1e-07, 0.02
**
** BOUNDARY CONDITIONS
** 
** Name: BC-18 Type: Displacement/Rotation
*Boundary
Set-3, 1, 1
Set-3, 2, 2, -2.08240534521e-06
Set-3, 6, 6
** 
** CONTROLS
** 
*Controls, reset
** 
** OUTPUT REQUESTS
** 
*Restart, write, frequency=0
** 
** FIELD OUTPUT: F-Output-18
** 
*Output, field
*Node Output, nset=Set-3
RF, U
*End Step
** ----------------------------------------------------------------
** 
** STEP: unload-18
**
*Step, name=unload-18, nlgeom=YES, inc=1000000
*Static
0.005, 0.075723830735, 1e-07, 0.005
**
** BOUNDARY CONDITIONS
** 
** Name: BC-18 Type: Displacement/Rotation
*Boundary
Set-3, 1, 1
Set-3, 2, 2, -1.70378619154e-06
Set-3, 6, 6
** 
** CONTROLS
** 
*Controls, reset
** 
** OUTPUT REQUESTS
** 
*Restart, write, frequency=0
** 
** FIELD OUTPUT: F-Output-18
** 
*Output, field
*Node Output, nset=Set-3
RF, U
*End Step
** ----------------------------------------------------------------
** 
** STEP: load-19
**
*Step, name=load-19, nlgeom=YES, inc=1000000
*Static
0.02, 0.0946547884187, 1e-07, 0.02
**
** BOUNDARY CONDITIONS
** 
** Name: BC-19 Type: Displacement/Rotation
*Boundary
Set-3, 1, 1
Set-3, 2, 2, -2.17706013363e-06
Set-3, 6, 6
** 
** CONTROLS
** 
*Controls, reset
** 
** OUTPUT REQUESTS
** 
*Restart, write, frequency=0
** 
** FIELD OUTPUT: F-Output-19
** 
*Output, field
*Node Output, nset=Set-3
RF, U
*End Step
** ----------------------------------------------------------------
** 
** STEP: unload-19
**
*Step, name=unload-19, nlgeom=YES, inc=1000000
*Static
0.005, 0.075723830735, 1e-07, 0.005
**
** BOUNDARY CONDITIONS
** 
** Name: BC-19 Type: Displacement/Rotation
*Boundary
Set-3, 1, 1
Set-3, 2, 2, -1.79844097996e-06
Set-3, 6, 6
** 
** CONTROLS
** 
*Controls, reset
** 
** OUTPUT REQUESTS
** 
*Restart, write, frequency=0
** 
** FIELD OUTPUT: F-Output-19
** 
*Output, field
*Node Output, nset=Set-3
RF, U
*End Step
** ----------------------------------------------------------------
** 
** STEP: load-20
**
*Step, name=load-20, nlgeom=YES, inc=1000000
*Static
0.02, 0.0946547884187, 1e-07, 0.02
**
** BOUNDARY CONDITIONS
** 
** Name: BC-20 Type: Displacement/Rotation
*Boundary
Set-3, 1, 1
Set-3, 2, 2, -2.27171492205e-06
Set-3, 6, 6
** 
** CONTROLS
** 
*Controls, reset
** 
** OUTPUT REQUESTS
** 
*Restart, write, frequency=0
** 
** FIELD OUTPUT: F-Output-20
** 
*Output, field
*Node Output, nset=Set-3
RF, U
*End Step
** ----------------------------------------------------------------
** 
** STEP: unload-20
**
*Step, name=unload-20, nlgeom=YES, inc=1000000
*Static
0.005, 0.075723830735, 1e-07, 0.005
**
** BOUNDARY CONDITIONS
** 
** Name: BC-20 Type: Displacement/Rotation
*Boundary
Set-3, 1, 1
Set-3, 2, 2, -1.89309576837e-06
Set-3, 6, 6
** 
** CONTROLS
** 
*Controls, reset
** 
** OUTPUT REQUESTS
** 
*Restart, write, frequency=0
** 
** FIELD OUTPUT: F-Output-20
** 
*Output, field
*Node Output, nset=Set-3
RF, U
*End Step
** ----------------------------------------------------------------
** 
** STEP: load-21
**
*Step, name=load-21, nlgeom=YES, inc=1000000
*Static
0.02, 0.189309576837, 1e-07, 0.02
**
** BOUNDARY CONDITIONS
** 
** Name: BC-21 Type: Displacement/Rotation
*Boundary
Set-3, 1, 1
Set-3, 2, 2, -2.83964365256e-06
Set-3, 6, 6
** 
** CONTROLS
** 
*Controls, reset
** 
** OUTPUT REQUESTS
** 
*Restart, write, frequency=0
** 
** FIELD OUTPUT: F-Output-21
** 
*Output, field
*Node Output, nset=Set-3
RF, U
*End Step
** ----------------------------------------------------------------
** 
** STEP: unload-21
**
*Step, name=unload-21, nlgeom=YES, inc=1000000
*Static
0.005, 0.0946547884187, 1e-07, 0.005
**
** BOUNDARY CONDITIONS
** 
** Name: BC-21 Type: Displacement/Rotation
*Boundary
Set-3, 1, 1
Set-3, 2, 2, -2.36636971047e-06
Set-3, 6, 6
** 
** CONTROLS
** 
*Controls, reset
** 
** OUTPUT REQUESTS
** 
*Restart, write, frequency=0
** 
** FIELD OUTPUT: F-Output-21
** 
*Output, field
*Node Output, nset=Set-3
RF, U
*End Step
** ----------------------------------------------------------------
** 
** STEP: load-22
**
*Step, name=load-22, nlgeom=YES, inc=1000000
*Static
0.02, 0.189309576837, 1e-07, 0.02
**
** BOUNDARY CONDITIONS
** 
** Name: BC-22 Type: Displacement/Rotation
*Boundary
Set-3, 1, 1
Set-3, 2, 2, -3.31291759465e-06
Set-3, 6, 6
** 
** CONTROLS
** 
*Controls, reset
** 
** OUTPUT REQUESTS
** 
*Restart, write, frequency=0
** 
** FIELD OUTPUT: F-Output-22
** 
*Output, field
*Node Output, nset=Set-3
RF, U
*End Step
** ----------------------------------------------------------------
** 
** STEP: unload-22
**
*Step, name=unload-22, nlgeom=YES, inc=1000000
*Static
0.005, 0.0946547884187, 1e-07, 0.005
**
** BOUNDARY CONDITIONS
** 
** Name: BC-22 Type: Displacement/Rotation
*Boundary
Set-3, 1, 1
Set-3, 2, 2, -2.83964365256e-06
Set-3, 6, 6
** 
** CONTROLS
** 
*Controls, reset
** 
** OUTPUT REQUESTS
** 
*Restart, write, frequency=0
** 
** FIELD OUTPUT: F-Output-22
** 
*Output, field
*Node Output, nset=Set-3
RF, U
*End Step
** ----------------------------------------------------------------
** 
** STEP: load-23
**
*Step, name=load-23, nlgeom=YES, inc=1000000
*Static
0.02, 0.189309576837, 1e-07, 0.02
**
** BOUNDARY CONDITIONS
** 
** Name: BC-23 Type: Displacement/Rotation
*Boundary
Set-3, 1, 1
Set-3, 2, 2, -3.78619153675e-06
Set-3, 6, 6
** 
** CONTROLS
** 
*Controls, reset
** 
** OUTPUT REQUESTS
** 
*Restart, write, frequency=0
** 
** FIELD OUTPUT: F-Output-23
** 
*Output, field
*Node Output, nset=Set-3
RF, U
*End Step
** ----------------------------------------------------------------
** 
** STEP: unload-23
**
*Step, name=unload-23, nlgeom=YES, inc=1000000
*Static
0.005, 0.0946547884187, 1e-07, 0.005
**
** BOUNDARY CONDITIONS
** 
** Name: BC-23 Type: Displacement/Rotation
*Boundary
Set-3, 1, 1
Set-3, 2, 2, -3.31291759465e-06
Set-3, 6, 6
** 
** CONTROLS
** 
*Controls, reset
** 
** OUTPUT REQUESTS
** 
*Restart, write, frequency=0
** 
** FIELD OUTPUT: F-Output-23
** 
*Output, field
*Node Output, nset=Set-3
RF, U
*End Step
** ----------------------------------------------------------------
** 
** STEP: load-24
**
*Step, name=load-24, nlgeom=YES, inc=1000000
*Static
0.02, 0.189309576837, 1e-07, 0.02
**
** BOUNDARY CONDITIONS
** 
** Name: BC-24 Type: Displacement/Rotation
*Boundary
Set-3, 1, 1
Set-3, 2, 2, -4.25946547884e-06
Set-3, 6, 6
** 
** CONTROLS
** 
*Controls, reset
** 
** OUTPUT REQUESTS
** 
*Restart, write, frequency=0
** 
** FIELD OUTPUT: F-Output-24
** 
*Output, field
*Node Output, nset=Set-3
RF, U
*End Step
** ----------------------------------------------------------------
** 
** STEP: unload-24
**
*Step, name=unload-24, nlgeom=YES, inc=1000000
*Static
0.005, 0.0946547884187, 1e-07, 0.005
**
** BOUNDARY CONDITIONS
** 
** Name: BC-24 Type: Displacement/Rotation
*Boundary
Set-3, 1, 1
Set-3, 2, 2, -3.78619153675e-06
Set-3, 6, 6
** 
** CONTROLS
** 
*Controls, reset
** 
** OUTPUT REQUESTS
** 
*Restart, write, frequency=0
** 
** FIELD OUTPUT: F-Output-24
** 
*Output, field
*Node Output, nset=Set-3
RF, U
*End Step
** ----------------------------------------------------------------
** 
** STEP: load-25
**
*Step, name=load-25, nlgeom=YES, inc=1000000
*Static
0.02, 0.189309576837, 1e-07, 0.02
**
** BOUNDARY CONDITIONS
** 
** Name: BC-25 Type: Displacement/Rotation
*Boundary
Set-3, 1, 1
Set-3, 2, 2, -4.73273942094e-06
Set-3, 6, 6
** 
** CONTROLS
** 
*Controls, reset
** 
** OUTPUT REQUESTS
** 
*Restart, write, frequency=0
** 
** FIELD OUTPUT: F-Output-25
** 
*Output, field
*Node Output, nset=Set-3
RF, U
*End Step
** ----------------------------------------------------------------
** 
** STEP: unload-25
**
*Step, name=unload-25, nlgeom=YES, inc=1000000
*Static
0.005, 0.0946547884187, 1e-07, 0.005
**
** BOUNDARY CONDITIONS
** 
** Name: BC-25 Type: Displacement/Rotation
*Boundary
Set-3, 1, 1
Set-3, 2, 2, -4.25946547884e-06
Set-3, 6, 6
** 
** CONTROLS
** 
*Controls, reset
** 
** OUTPUT REQUESTS
** 
*Restart, write, frequency=0
** 
** FIELD OUTPUT: F-Output-25
** 
*Output, field
*Node Output, nset=Set-3
RF, U
*End Step
** ----------------------------------------------------------------
** 
** STEP: load-26
**
*Step, name=load-26, nlgeom=YES, inc=1000000
*Static
0.02, 0.189309576837, 1e-07, 0.02
**
** BOUNDARY CONDITIONS
** 
** Name: BC-26 Type: Displacement/Rotation
*Boundary
Set-3, 1, 1
Set-3, 2, 2, -5.20601336303e-06
Set-3, 6, 6
** 
** CONTROLS
** 
*Controls, reset
** 
** OUTPUT REQUESTS
** 
*Restart, write, frequency=0
** 
** FIELD OUTPUT: F-Output-26
** 
*Output, field
*Node Output, nset=Set-3
RF, U
*End Step
** ----------------------------------------------------------------
** 
** STEP: unload-26
**
*Step, name=unload-26, nlgeom=YES, inc=1000000
*Static
0.005, 0.0946547884187, 1e-07, 0.005
**
** BOUNDARY CONDITIONS
** 
** Name: BC-26 Type: Displacement/Rotation
*Boundary
Set-3, 1, 1
Set-3, 2, 2, -4.73273942094e-06
Set-3, 6, 6
** 
** CONTROLS
** 
*Controls, reset
** 
** OUTPUT REQUESTS
** 
*Restart, write, frequency=0
** 
** FIELD OUTPUT: F-Output-26
** 
*Output, field
*Node Output, nset=Set-3
RF, U
*End Step
** ----------------------------------------------------------------
** 
** STEP: load-27
**
*Step, name=load-27, nlgeom=YES, inc=1000000
*Static
0.02, 0.378619153675, 1e-07, 0.02
**
** BOUNDARY CONDITIONS
** 
** Name: BC-27 Type: Displacement/Rotation
*Boundary
Set-3, 1, 1
Set-3, 2, 2, -6.62583518931e-06
Set-3, 6, 6
** 
** CONTROLS
** 
*Controls, reset
** 
** OUTPUT REQUESTS
** 
*Restart, write, frequency=0
** 
** FIELD OUTPUT: F-Output-27
** 
*Output, field
*Node Output, nset=Set-3
RF, U
*End Step
** ----------------------------------------------------------------
** 
** STEP: unload-27
**
*Step, name=unload-27, nlgeom=YES, inc=1000000
*Static
0.005, 0.189309576837, 1e-07, 0.005
**
** BOUNDARY CONDITIONS
** 
** Name: BC-27 Type: Displacement/Rotation
*Boundary
Set-3, 1, 1
Set-3, 2, 2, -5.67928730512e-06
Set-3, 6, 6
** 
** CONTROLS
** 
*Controls, reset
** 
** OUTPUT REQUESTS
** 
*Restart, write, frequency=0
** 
** FIELD OUTPUT: F-Output-27
** 
*Output, field
*Node Output, nset=Set-3
RF, U
*End Step
** ----------------------------------------------------------------
** 
** STEP: load-28
**
*Step, name=load-28, nlgeom=YES, inc=1000000
*Static
0.02, 0.378619153675, 1e-07, 0.02
**
** BOUNDARY CONDITIONS
** 
** Name: BC-28 Type: Displacement/Rotation
*Boundary
Set-3, 1, 1
Set-3, 2, 2, -7.5723830735e-06
Set-3, 6, 6
** 
** CONTROLS
** 
*Controls, reset
** 
** OUTPUT REQUESTS
** 
*Restart, write, frequency=0
** 
** FIELD OUTPUT: F-Output-28
** 
*Output, field
*Node Output, nset=Set-3
RF, U
*End Step
** ----------------------------------------------------------------
** 
** STEP: unload-28
**
*Step, name=unload-28, nlgeom=YES, inc=1000000
*Static
0.005, 0.189309576837, 1e-07, 0.005
**
** BOUNDARY CONDITIONS
** 
** Name: BC-28 Type: Displacement/Rotation
*Boundary
Set-3, 1, 1
Set-3, 2, 2, -6.62583518931e-06
Set-3, 6, 6
** 
** CONTROLS
** 
*Controls, reset
** 
** OUTPUT REQUESTS
** 
*Restart, write, frequency=0
** 
** FIELD OUTPUT: F-Output-28
** 
*Output, field
*Node Output, nset=Set-3
RF, U
*End Step
** ----------------------------------------------------------------
** 
** STEP: load-29
**
*Step, name=load-29, nlgeom=YES, inc=1000000
*Static
0.02, 0.378619153675, 1e-07, 0.02
**
** BOUNDARY CONDITIONS
** 
** Name: BC-29 Type: Displacement/Rotation
*Boundary
Set-3, 1, 1
Set-3, 2, 2, -8.51893095768e-06
Set-3, 6, 6
** 
** CONTROLS
** 
*Controls, reset
** 
** OUTPUT REQUESTS
** 
*Restart, write, frequency=0
** 
** FIELD OUTPUT: F-Output-29
** 
*Output, field
*Node Output, nset=Set-3
RF, U
*End Step
** ----------------------------------------------------------------
** 
** STEP: unload-29
**
*Step, name=unload-29, nlgeom=YES, inc=1000000
*Static
0.005, 0.189309576837, 1e-07, 0.005
**
** BOUNDARY CONDITIONS
** 
** Name: BC-29 Type: Displacement/Rotation
*Boundary
Set-3, 1, 1
Set-3, 2, 2, -7.5723830735e-06
Set-3, 6, 6
** 
** CONTROLS
** 
*Controls, reset
** 
** OUTPUT REQUESTS
** 
*Restart, write, frequency=0
** 
** FIELD OUTPUT: F-Output-29
** 
*Output, field
*Node Output, nset=Set-3
RF, U
*End Step
** ----------------------------------------------------------------
** 
** STEP: load-30
**
*Step, name=load-30, nlgeom=YES, inc=1000000
*Static
0.02, 0.378619153675, 1e-07, 0.02
**
** BOUNDARY CONDITIONS
** 
** Name: BC-30 Type: Displacement/Rotation
*Boundary
Set-3, 1, 1
Set-3, 2, 2, -9.46547884187e-06
Set-3, 6, 6
** 
** CONTROLS
** 
*Controls, reset
** 
** OUTPUT REQUESTS
** 
*Restart, write, frequency=0
** 
** FIELD OUTPUT: F-Output-30
** 
*Output, field
*Node Output, nset=Set-3
RF, U
*End Step
** ----------------------------------------------------------------
** 
** STEP: unload-30
**
*Step, name=unload-30, nlgeom=YES, inc=1000000
*Static
0.005, 0.189309576837, 1e-07, 0.005
**
** BOUNDARY CONDITIONS
** 
** Name: BC-30 Type: Displacement/Rotation
*Boundary
Set-3, 1, 1
Set-3, 2, 2, -8.51893095768e-06
Set-3, 6, 6
** 
** CONTROLS
** 
*Controls, reset
** 
** OUTPUT REQUESTS
** 
*Restart, write, frequency=0
** 
** FIELD OUTPUT: F-Output-30
** 
*Output, field
*Node Output, nset=Set-3
RF, U
*End Step
** ----------------------------------------------------------------
** 
** STEP: load-31
**
*Step, name=load-31, nlgeom=YES, inc=1000000
*Static
0.02, 0.378619153675, 1e-07, 0.02
**
** BOUNDARY CONDITIONS
** 
** Name: BC-31 Type: Displacement/Rotation
*Boundary
Set-3, 1, 1
Set-3, 2, 2, -1.04120267261e-05
Set-3, 6, 6
** 
** CONTROLS
** 
*Controls, reset
** 
** OUTPUT REQUESTS
** 
*Restart, write, frequency=0
** 
** FIELD OUTPUT: F-Output-31
** 
*Output, field
*Node Output, nset=Set-3
RF, U
*End Step
** ----------------------------------------------------------------
** 
** STEP: unload-31
**
*Step, name=unload-31, nlgeom=YES, inc=1000000
*Static
0.005, 0.189309576837, 1e-07, 0.005
**
** BOUNDARY CONDITIONS
** 
** Name: BC-31 Type: Displacement/Rotation
*Boundary
Set-3, 1, 1
Set-3, 2, 2, -9.46547884187e-06
Set-3, 6, 6
** 
** CONTROLS
** 
*Controls, reset
** 
** OUTPUT REQUESTS
** 
*Restart, write, frequency=0
** 
** FIELD OUTPUT: F-Output-31
** 
*Output, field
*Node Output, nset=Set-3
RF, U
*End Step
** ----------------------------------------------------------------
** 
** STEP: load-32
**
*Step, name=load-32, nlgeom=YES, inc=1000000
*Static
0.02, 0.946547884187, 1e-07, 0.02
**
** BOUNDARY CONDITIONS
** 
** Name: BC-32 Type: Displacement/Rotation
*Boundary
Set-3, 1, 1
Set-3, 2, 2, -1.41982182628e-05
Set-3, 6, 6
** 
** CONTROLS
** 
*Controls, reset
** 
** OUTPUT REQUESTS
** 
*Restart, write, frequency=0
** 
** FIELD OUTPUT: F-Output-32
** 
*Output, field
*Node Output, nset=Set-3
RF, U
*End Step
** ----------------------------------------------------------------
** 
** STEP: unload_a-32
**
*Step, name=unload_a-32, nlgeom=YES, inc=1000000
*Static
0.005, 0.2, 1e-07, 0.005
**
** BOUNDARY CONDITIONS
** 
** Name: BC-32 Type: Displacement/Rotation
*Boundary
Set-3, 1, 1
Set-3, 2, 2, -1.31982182628e-05
Set-3, 6, 6
** 
** CONTROLS
** 
*Controls, reset
** 
** OUTPUT REQUESTS
** 
*Restart, write, frequency=0
** 
** FIELD OUTPUT: F-Output-32
** 
*Output, field
*Node Output, nset=Set-3
RF, U
*End Step
** ----------------------------------------------------------------
** 
** STEP: unload_b-32
**
*Step, name=unload_b-32, nlgeom=YES, inc=1000000
*Static
0.02, 0.578619153675, 1e-07, 0.02
**
** BOUNDARY CONDITIONS
** 
** Name: BC-32 Type: Displacement/Rotation
*Boundary
Set-3, 1, 1
Set-3, 2, 2, -1.23051224944e-05
Set-3, 6, 6
** 
** CONTROLS
** 
*Controls, reset
** 
** OUTPUT REQUESTS
** 
*Restart, write, frequency=0
** 
** FIELD OUTPUT: F-Output-32
** 
*Output, field
*Node Output, nset=Set-3
RF, U
*End Step
** ----------------------------------------------------------------
** 
** STEP: load-33
**
*Step, name=load-33, nlgeom=YES, inc=1000000
*Static
0.02, 0.946547884187, 1e-07, 0.02
**
** BOUNDARY CONDITIONS
** 
** Name: BC-33 Type: Displacement/Rotation
*Boundary
Set-3, 1, 1
Set-3, 2, 2, -1.70378619154e-05
Set-3, 6, 6
** 
** CONTROLS
** 
*Controls, reset
** 
** OUTPUT REQUESTS
** 
*Restart, write, frequency=0
** 
** FIELD OUTPUT: F-Output-33
** 
*Output, field
*Node Output, nset=Set-3
RF, U
*End Step
** ----------------------------------------------------------------
** 
** STEP: unload_a-33
**
*Step, name=unload_a-33, nlgeom=YES, inc=1000000
*Static
0.005, 0.2, 1e-07, 0.005
**
** BOUNDARY CONDITIONS
** 
** Name: BC-33 Type: Displacement/Rotation
*Boundary
Set-3, 1, 1
Set-3, 2, 2, -1.60378619154e-05
Set-3, 6, 6
** 
** CONTROLS
** 
*Controls, reset
** 
** OUTPUT REQUESTS
** 
*Restart, write, frequency=0
** 
** FIELD OUTPUT: F-Output-33
** 
*Output, field
*Node Output, nset=Set-3
RF, U
*End Step
** ----------------------------------------------------------------
** 
** STEP: unload_b-33
**
*Step, name=unload_b-33, nlgeom=YES, inc=1000000
*Static
0.02, 0.578619153675, 1e-07, 0.02
**
** BOUNDARY CONDITIONS
** 
** Name: BC-33 Type: Displacement/Rotation
*Boundary
Set-3, 1, 1
Set-3, 2, 2, -1.5144766147e-05
Set-3, 6, 6
** 
** CONTROLS
** 
*Controls, reset
** 
** OUTPUT REQUESTS
** 
*Restart, write, frequency=0
** 
** FIELD OUTPUT: F-Output-33
** 
*Output, field
*Node Output, nset=Set-3
RF, U
*End Step
** ----------------------------------------------------------------
** 
** STEP: load-34
**
*Step, name=load-34, nlgeom=YES, inc=1000000
*Static
0.02, 0.946547884187, 1e-07, 0.02
**
** BOUNDARY CONDITIONS
** 
** Name: BC-34 Type: Displacement/Rotation
*Boundary
Set-3, 1, 1
Set-3, 2, 2, -1.98775055679e-05
Set-3, 6, 6
** 
** CONTROLS
** 
*Controls, reset
** 
** OUTPUT REQUESTS
** 
*Restart, write, frequency=0
** 
** FIELD OUTPUT: F-Output-34
** 
*Output, field
*Node Output, nset=Set-3
RF, U
*End Step
** ----------------------------------------------------------------
** 
** STEP: unload_a-34
**
*Step, name=unload_a-34, nlgeom=YES, inc=1000000
*Static
0.005, 0.2, 1e-07, 0.005
**
** BOUNDARY CONDITIONS
** 
** Name: BC-34 Type: Displacement/Rotation
*Boundary
Set-3, 1, 1
Set-3, 2, 2, -1.88775055679e-05
Set-3, 6, 6
** 
** CONTROLS
** 
*Controls, reset
** 
** OUTPUT REQUESTS
** 
*Restart, write, frequency=0
** 
** FIELD OUTPUT: F-Output-34
** 
*Output, field
*Node Output, nset=Set-3
RF, U
*End Step
** ----------------------------------------------------------------
** 
** STEP: unload_b-34
**
*Step, name=unload_b-34, nlgeom=YES, inc=1000000
*Static
0.02, 0.578619153675, 1e-07, 0.02
**
** BOUNDARY CONDITIONS
** 
** Name: BC-34 Type: Displacement/Rotation
*Boundary
Set-3, 1, 1
Set-3, 2, 2, -1.79844097996e-05
Set-3, 6, 6
** 
** CONTROLS
** 
*Controls, reset
** 
** OUTPUT REQUESTS
** 
*Restart, write, frequency=0
** 
** FIELD OUTPUT: F-Output-34
** 
*Output, field
*Node Output, nset=Set-3
RF, U
*End Step
** ----------------------------------------------------------------
** 
** STEP: load-35
**
*Step, name=load-35, nlgeom=YES, inc=1000000
*Static
0.02, 0.946547884187, 1e-07, 0.02
**
** BOUNDARY CONDITIONS
** 
** Name: BC-35 Type: Displacement/Rotation
*Boundary
Set-3, 1, 1
Set-3, 2, 2, -2.27171492205e-05
Set-3, 6, 6
** 
** CONTROLS
** 
*Controls, reset
** 
** OUTPUT REQUESTS
** 
*Restart, write, frequency=0
** 
** FIELD OUTPUT: F-Output-35
** 
*Output, field
*Node Output, nset=Set-3
RF, U
*End Step
** ----------------------------------------------------------------
** 
** STEP: unload_a-35
**
*Step, name=unload_a-35, nlgeom=YES, inc=1000000
*Static
0.005, 0.2, 1e-07, 0.005
**
** BOUNDARY CONDITIONS
** 
** Name: BC-35 Type: Displacement/Rotation
*Boundary
Set-3, 1, 1
Set-3, 2, 2, -2.17171492205e-05
Set-3, 6, 6
** 
** CONTROLS
** 
*Controls, reset
** 
** OUTPUT REQUESTS
** 
*Restart, write, frequency=0
** 
** FIELD OUTPUT: F-Output-35
** 
*Output, field
*Node Output, nset=Set-3
RF, U
*End Step
** ----------------------------------------------------------------
** 
** STEP: unload_b-35
**
*Step, name=unload_b-35, nlgeom=YES, inc=1000000
*Static
0.02, 0.578619153675, 1e-07, 0.02
**
** BOUNDARY CONDITIONS
** 
** Name: BC-35 Type: Displacement/Rotation
*Boundary
Set-3, 1, 1
Set-3, 2, 2, -2.08240534521e-05
Set-3, 6, 6
** 
** CONTROLS
** 
*Controls, reset
** 
** OUTPUT REQUESTS
** 
*Restart, write, frequency=0
** 
** FIELD OUTPUT: F-Output-35
** 
*Output, field
*Node Output, nset=Set-3
RF, U
*End Step
** ----------------------------------------------------------------
** 
** STEP: load-36
**
*Step, name=load-36, nlgeom=YES, inc=1000000
*Static
0.02, 0.946547884187, 1e-07, 0.02
**
** BOUNDARY CONDITIONS
** 
** Name: BC-36 Type: Displacement/Rotation
*Boundary
Set-3, 1, 1
Set-3, 2, 2, -2.55567928731e-05
Set-3, 6, 6
** 
** CONTROLS
** 
*Controls, reset
** 
** OUTPUT REQUESTS
** 
*Restart, write, frequency=0
** 
** FIELD OUTPUT: F-Output-36
** 
*Output, field
*Node Output, nset=Set-3
RF, U
*End Step
** ----------------------------------------------------------------
** 
** STEP: unload_a-36
**
*Step, name=unload_a-36, nlgeom=YES, inc=1000000
*Static
0.005, 0.2, 1e-07, 0.005
**
** BOUNDARY CONDITIONS
** 
** Name: BC-36 Type: Displacement/Rotation
*Boundary
Set-3, 1, 1
Set-3, 2, 2, -2.45567928731e-05
Set-3, 6, 6
** 
** CONTROLS
** 
*Controls, reset
** 
** OUTPUT REQUESTS
** 
*Restart, write, frequency=0
** 
** FIELD OUTPUT: F-Output-36
** 
*Output, field
*Node Output, nset=Set-3
RF, U
*End Step
** ----------------------------------------------------------------
** 
** STEP: unload_b-36
**
*Step, name=unload_b-36, nlgeom=YES, inc=1000000
*Static
0.02, 0.578619153675, 1e-07, 0.02
**
** BOUNDARY CONDITIONS
** 
** Name: BC-36 Type: Displacement/Rotation
*Boundary
Set-3, 1, 1
Set-3, 2, 2, -2.36636971047e-05
Set-3, 6, 6
** 
** CONTROLS
** 
*Controls, reset
** 
** OUTPUT REQUESTS
** 
*Restart, write, frequency=0
** 
** FIELD OUTPUT: F-Output-36
** 
*Output, field
*Node Output, nset=Set-3
RF, U
*End Step
** ----------------------------------------------------------------
** 
** STEP: load-37
**
*Step, name=load-37, nlgeom=YES, inc=1000000
*Static
0.02, 0.946547884187, 1e-07, 0.02
**
** BOUNDARY CONDITIONS
** 
** Name: BC-37 Type: Displacement/Rotation
*Boundary
Set-3, 1, 1
Set-3, 2, 2, -2.83964365256e-05
Set-3, 6, 6
** 
** CONTROLS
** 
*Controls, reset
** 
** OUTPUT REQUESTS
** 
*Restart, write, frequency=0
** 
** FIELD OUTPUT: F-Output-37
** 
*Output, field
*Node Output, nset=Set-3
RF, U
*End Step
** ----------------------------------------------------------------
** 
** STEP: unload_a-37
**
*Step, name=unload_a-37, nlgeom=YES, inc=1000000
*Static
0.005, 0.2, 1e-07, 0.005
**
** BOUNDARY CONDITIONS
** 
** Name: BC-37 Type: Displacement/Rotation
*Boundary
Set-3, 1, 1
Set-3, 2, 2, -2.73964365256e-05
Set-3, 6, 6
** 
** CONTROLS
** 
*Controls, reset
** 
** OUTPUT REQUESTS
** 
*Restart, write, frequency=0
** 
** FIELD OUTPUT: F-Output-37
** 
*Output, field
*Node Output, nset=Set-3
RF, U
*End Step
** ----------------------------------------------------------------
** 
** STEP: unload_b-37
**
*Step, name=unload_b-37, nlgeom=YES, inc=1000000
*Static
0.02, 0.578619153675, 1e-07, 0.02
**
** BOUNDARY CONDITIONS
** 
** Name: BC-37 Type: Displacement/Rotation
*Boundary
Set-3, 1, 1
Set-3, 2, 2, -2.65033407572e-05
Set-3, 6, 6
** 
** CONTROLS
** 
*Controls, reset
** 
** OUTPUT REQUESTS
** 
*Restart, write, frequency=0
** 
** FIELD OUTPUT: F-Output-37
** 
*Output, field
*Node Output, nset=Set-3
RF, U
*End Step
** ----------------------------------------------------------------
** 
** STEP: load-38
**
*Step, name=load-38, nlgeom=YES, inc=1000000
*Static
0.02, 0.946547884187, 1e-07, 0.02
**
** BOUNDARY CONDITIONS
** 
** Name: BC-38 Type: Displacement/Rotation
*Boundary
Set-3, 1, 1
Set-3, 2, 2, -3.12360801782e-05
Set-3, 6, 6
** 
** CONTROLS
** 
*Controls, reset
** 
** OUTPUT REQUESTS
** 
*Restart, write, frequency=0
** 
** FIELD OUTPUT: F-Output-38
** 
*Output, field
*Node Output, nset=Set-3
RF, U
*End Step
** ----------------------------------------------------------------
** 
** STEP: unload_a-38
**
*Step, name=unload_a-38, nlgeom=YES, inc=1000000
*Static
0.005, 0.2, 1e-07, 0.005
**
** BOUNDARY CONDITIONS
** 
** Name: BC-38 Type: Displacement/Rotation
*Boundary
Set-3, 1, 1
Set-3, 2, 2, -3.02360801782e-05
Set-3, 6, 6
** 
** CONTROLS
** 
*Controls, reset
** 
** OUTPUT REQUESTS
** 
*Restart, write, frequency=0
** 
** FIELD OUTPUT: F-Output-38
** 
*Output, field
*Node Output, nset=Set-3
RF, U
*End Step
** ----------------------------------------------------------------
** 
** STEP: unload_b-38
**
*Step, name=unload_b-38, nlgeom=YES, inc=1000000
*Static
0.02, 0.578619153675, 1e-07, 0.02
**
** BOUNDARY CONDITIONS
** 
** Name: BC-38 Type: Displacement/Rotation
*Boundary
Set-3, 1, 1
Set-3, 2, 2, -2.93429844098e-05
Set-3, 6, 6
** 
** CONTROLS
** 
*Controls, reset
** 
** OUTPUT REQUESTS
** 
*Restart, write, frequency=0
** 
** FIELD OUTPUT: F-Output-38
** 
*Output, field
*Node Output, nset=Set-3
RF, U
*End Step
** ----------------------------------------------------------------
** 
** STEP: load-39
**
*Step, name=load-39, nlgeom=YES, inc=1000000
*Static
0.02, 0.946547884187, 1e-07, 0.02
**
** BOUNDARY CONDITIONS
** 
** Name: BC-39 Type: Displacement/Rotation
*Boundary
Set-3, 1, 1
Set-3, 2, 2, -3.40757238307e-05
Set-3, 6, 6
** 
** CONTROLS
** 
*Controls, reset
** 
** OUTPUT REQUESTS
** 
*Restart, write, frequency=0
** 
** FIELD OUTPUT: F-Output-39
** 
*Output, field
*Node Output, nset=Set-3
RF, U
*End Step
** ----------------------------------------------------------------
** 
** STEP: unload_a-39
**
*Step, name=unload_a-39, nlgeom=YES, inc=1000000
*Static
0.005, 0.2, 1e-07, 0.005
**
** BOUNDARY CONDITIONS
** 
** Name: BC-39 Type: Displacement/Rotation
*Boundary
Set-3, 1, 1
Set-3, 2, 2, -3.30757238307e-05
Set-3, 6, 6
** 
** CONTROLS
** 
*Controls, reset
** 
** OUTPUT REQUESTS
** 
*Restart, write, frequency=0
** 
** FIELD OUTPUT: F-Output-39
** 
*Output, field
*Node Output, nset=Set-3
RF, U
*End Step
** ----------------------------------------------------------------
** 
** STEP: unload_b-39
**
*Step, name=unload_b-39, nlgeom=YES, inc=1000000
*Static
0.02, 0.578619153675, 1e-07, 0.02
**
** BOUNDARY CONDITIONS
** 
** Name: BC-39 Type: Displacement/Rotation
*Boundary
Set-3, 1, 1
Set-3, 2, 2, -3.21826280624e-05
Set-3, 6, 6
** 
** CONTROLS
** 
*Controls, reset
** 
** OUTPUT REQUESTS
** 
*Restart, write, frequency=0
** 
** FIELD OUTPUT: F-Output-39
** 
*Output, field
*Node Output, nset=Set-3
RF, U
*End Step
** ----------------------------------------------------------------
** 
** STEP: load-40
**
*Step, name=load-40, nlgeom=YES, inc=1000000
*Static
0.02, 0.946547884187, 1e-07, 0.02
**
** BOUNDARY CONDITIONS
** 
** Name: BC-40 Type: Displacement/Rotation
*Boundary
Set-3, 1, 1
Set-3, 2, 2, -3.69153674833e-05
Set-3, 6, 6
** 
** CONTROLS
** 
*Controls, reset
** 
** OUTPUT REQUESTS
** 
*Restart, write, frequency=0
** 
** FIELD OUTPUT: F-Output-40
** 
*Output, field
*Node Output, nset=Set-3
RF, U
*End Step
** ----------------------------------------------------------------
** 
** STEP: unload_a-40
**
*Step, name=unload_a-40, nlgeom=YES, inc=1000000
*Static
0.005, 0.2, 1e-07, 0.005
**
** BOUNDARY CONDITIONS
** 
** Name: BC-40 Type: Displacement/Rotation
*Boundary
Set-3, 1, 1
Set-3, 2, 2, -3.59153674833e-05
Set-3, 6, 6
** 
** CONTROLS
** 
*Controls, reset
** 
** OUTPUT REQUESTS
** 
*Restart, write, frequency=0
** 
** FIELD OUTPUT: F-Output-40
** 
*Output, field
*Node Output, nset=Set-3
RF, U
*End Step
** ----------------------------------------------------------------
** 
** STEP: unload_b-40
**
*Step, name=unload_b-40, nlgeom=YES, inc=1000000
*Static
0.02, 0.578619153675, 1e-07, 0.02
**
** BOUNDARY CONDITIONS
** 
** Name: BC-40 Type: Displacement/Rotation
*Boundary
Set-3, 1, 1
Set-3, 2, 2, -3.50222717149e-05
Set-3, 6, 6
** 
** CONTROLS
** 
*Controls, reset
** 
** OUTPUT REQUESTS
** 
*Restart, write, frequency=0
** 
** FIELD OUTPUT: F-Output-40
** 
*Output, field
*Node Output, nset=Set-3
RF, U
*End Step
** ----------------------------------------------------------------
** 
** STEP: load-41
**
*Step, name=load-41, nlgeom=YES, inc=1000000
*Static
0.02, 0.946547884187, 1e-07, 0.02
**
** BOUNDARY CONDITIONS
** 
** Name: BC-41 Type: Displacement/Rotation
*Boundary
Set-3, 1, 1
Set-3, 2, 2, -3.97550111359e-05
Set-3, 6, 6
** 
** CONTROLS
** 
*Controls, reset
** 
** OUTPUT REQUESTS
** 
*Restart, write, frequency=0
** 
** FIELD OUTPUT: F-Output-41
** 
*Output, field
*Node Output, nset=Set-3
RF, U
*End Step
** ----------------------------------------------------------------
** 
** STEP: unload_a-41
**
*Step, name=unload_a-41, nlgeom=YES, inc=1000000
*Static
0.005, 0.2, 1e-07, 0.005
**
** BOUNDARY CONDITIONS
** 
** Name: BC-41 Type: Displacement/Rotation
*Boundary
Set-3, 1, 1
Set-3, 2, 2, -3.87550111359e-05
Set-3, 6, 6
** 
** CONTROLS
** 
*Controls, reset
** 
** OUTPUT REQUESTS
** 
*Restart, write, frequency=0
** 
** FIELD OUTPUT: F-Output-41
** 
*Output, field
*Node Output, nset=Set-3
RF, U
*End Step
** ----------------------------------------------------------------
** 
** STEP: unload_b-41
**
*Step, name=unload_b-41, nlgeom=YES, inc=1000000
*Static
0.02, 0.578619153675, 1e-07, 0.02
**
** BOUNDARY CONDITIONS
** 
** Name: BC-41 Type: Displacement/Rotation
*Boundary
Set-3, 1, 1
Set-3, 2, 2, -3.78619153675e-05
Set-3, 6, 6
** 
** CONTROLS
** 
*Controls, reset
** 
** OUTPUT REQUESTS
** 
*Restart, write, frequency=0
** 
** FIELD OUTPUT: F-Output-41
** 
*Output, field
*Node Output, nset=Set-3
RF, U
*End Step
** ----------------------------------------------------------------
** 
** STEP: load-42
**
*Step, name=load-42, nlgeom=YES, inc=1000000
*Static
0.02, 0.946547884187, 1e-07, 0.02
**
** BOUNDARY CONDITIONS
** 
** Name: BC-42 Type: Displacement/Rotation
*Boundary
Set-3, 1, 1
Set-3, 2, 2, -4.25946547884e-05
Set-3, 6, 6
** 
** CONTROLS
** 
*Controls, reset
** 
** OUTPUT REQUESTS
** 
*Restart, write, frequency=0
** 
** FIELD OUTPUT: F-Output-42
** 
*Output, field
*Node Output, nset=Set-3
RF, U
*End Step
** ----------------------------------------------------------------
** 
** STEP: unload_a-42
**
*Step, name=unload_a-42, nlgeom=YES, inc=1000000
*Static
0.005, 0.2, 1e-07, 0.005
**
** BOUNDARY CONDITIONS
** 
** Name: BC-42 Type: Displacement/Rotation
*Boundary
Set-3, 1, 1
Set-3, 2, 2, -4.15946547884e-05
Set-3, 6, 6
** 
** CONTROLS
** 
*Controls, reset
** 
** OUTPUT REQUESTS
** 
*Restart, write, frequency=0
** 
** FIELD OUTPUT: F-Output-42
** 
*Output, field
*Node Output, nset=Set-3
RF, U
*End Step
** ----------------------------------------------------------------
** 
** STEP: unload_b-42
**
*Step, name=unload_b-42, nlgeom=YES, inc=1000000
*Static
0.02, 0.578619153675, 1e-07, 0.02
**
** BOUNDARY CONDITIONS
** 
** Name: BC-42 Type: Displacement/Rotation
*Boundary
Set-3, 1, 1
Set-3, 2, 2, -4.070155902e-05
Set-3, 6, 6
** 
** CONTROLS
** 
*Controls, reset
** 
** OUTPUT REQUESTS
** 
*Restart, write, frequency=0
** 
** FIELD OUTPUT: F-Output-42
** 
*Output, field
*Node Output, nset=Set-3
RF, U
*End Step
** ----------------------------------------------------------------
** 
** STEP: load-43
**
*Step, name=load-43, nlgeom=YES, inc=1000000
*Static
0.02, 0.946547884187, 1e-07, 0.02
**
** BOUNDARY CONDITIONS
** 
** Name: BC-43 Type: Displacement/Rotation
*Boundary
Set-3, 1, 1
Set-3, 2, 2, -4.5434298441e-05
Set-3, 6, 6
** 
** CONTROLS
** 
*Controls, reset
** 
** OUTPUT REQUESTS
** 
*Restart, write, frequency=0
** 
** FIELD OUTPUT: F-Output-43
** 
*Output, field
*Node Output, nset=Set-3
RF, U
*End Step
** ----------------------------------------------------------------
** 
** STEP: unload_a-43
**
*Step, name=unload_a-43, nlgeom=YES, inc=1000000
*Static
0.005, 0.2, 1e-07, 0.005
**
** BOUNDARY CONDITIONS
** 
** Name: BC-43 Type: Displacement/Rotation
*Boundary
Set-3, 1, 1
Set-3, 2, 2, -4.4434298441e-05
Set-3, 6, 6
** 
** CONTROLS
** 
*Controls, reset
** 
** OUTPUT REQUESTS
** 
*Restart, write, frequency=0
** 
** FIELD OUTPUT: F-Output-43
** 
*Output, field
*Node Output, nset=Set-3
RF, U
*End Step
** ----------------------------------------------------------------
** 
** STEP: unload_b-43
**
*Step, name=unload_b-43, nlgeom=YES, inc=1000000
*Static
0.02, 0.578619153675, 1e-07, 0.02
**
** BOUNDARY CONDITIONS
** 
** Name: BC-43 Type: Displacement/Rotation
*Boundary
Set-3, 1, 1
Set-3, 2, 2, -4.35412026726e-05
Set-3, 6, 6
** 
** CONTROLS
** 
*Controls, reset
** 
** OUTPUT REQUESTS
** 
*Restart, write, frequency=0
** 
** FIELD OUTPUT: F-Output-43
** 
*Output, field
*Node Output, nset=Set-3
RF, U
*End Step
** ----------------------------------------------------------------
** 
** STEP: load-44
**
*Step, name=load-44, nlgeom=YES, inc=1000000
*Static
0.02, 0.946547884187, 1e-07, 0.02
**
** BOUNDARY CONDITIONS
** 
** Name: BC-44 Type: Displacement/Rotation
*Boundary
Set-3, 1, 1
Set-3, 2, 2, -4.82739420935e-05
Set-3, 6, 6
** 
** CONTROLS
** 
*Controls, reset
** 
** OUTPUT REQUESTS
** 
*Restart, write, frequency=0
** 
** FIELD OUTPUT: F-Output-44
** 
*Output, field
*Node Output, nset=Set-3
RF, U
*End Step
** ----------------------------------------------------------------
** 
** STEP: unload_a-44
**
*Step, name=unload_a-44, nlgeom=YES, inc=1000000
*Static
0.005, 0.2, 1e-07, 0.005
**
** BOUNDARY CONDITIONS
** 
** Name: BC-44 Type: Displacement/Rotation
*Boundary
Set-3, 1, 1
Set-3, 2, 2, -4.72739420935e-05
Set-3, 6, 6
** 
** CONTROLS
** 
*Controls, reset
** 
** OUTPUT REQUESTS
** 
*Restart, write, frequency=0
** 
** FIELD OUTPUT: F-Output-44
** 
*Output, field
*Node Output, nset=Set-3
RF, U
*End Step
** ----------------------------------------------------------------
** 
** STEP: unload_b-44
**
*Step, name=unload_b-44, nlgeom=YES, inc=1000000
*Static
0.02, 0.578619153675, 1e-07, 0.02
**
** BOUNDARY CONDITIONS
** 
** Name: BC-44 Type: Displacement/Rotation
*Boundary
Set-3, 1, 1
Set-3, 2, 2, -4.63808463252e-05
Set-3, 6, 6
** 
** CONTROLS
** 
*Controls, reset
** 
** OUTPUT REQUESTS
** 
*Restart, write, frequency=0
** 
** FIELD OUTPUT: F-Output-44
** 
*Output, field
*Node Output, nset=Set-3
RF, U
*End Step
** ----------------------------------------------------------------
** 
** STEP: load-45
**
*Step, name=load-45, nlgeom=YES, inc=1000000
*Static
0.02, 0.946547884187, 1e-07, 0.02
**
** BOUNDARY CONDITIONS
** 
** Name: BC-45 Type: Displacement/Rotation
*Boundary
Set-3, 1, 1
Set-3, 2, 2, -5.11135857461e-05
Set-3, 6, 6
** 
** CONTROLS
** 
*Controls, reset
** 
** OUTPUT REQUESTS
** 
*Restart, write, frequency=0
** 
** FIELD OUTPUT: F-Output-45
** 
*Output, field
*Node Output, nset=Set-3
RF, U
*End Step
** ----------------------------------------------------------------
** 
** STEP: unload_a-45
**
*Step, name=unload_a-45, nlgeom=YES, inc=1000000
*Static
0.005, 0.2, 1e-07, 0.005
**
** BOUNDARY CONDITIONS
** 
** Name: BC-45 Type: Displacement/Rotation
*Boundary
Set-3, 1, 1
Set-3, 2, 2, -5.01135857461e-05
Set-3, 6, 6
** 
** CONTROLS
** 
*Controls, reset
** 
** OUTPUT REQUESTS
** 
*Restart, write, frequency=0
** 
** FIELD OUTPUT: F-Output-45
** 
*Output, field
*Node Output, nset=Set-3
RF, U
*End Step
** ----------------------------------------------------------------
** 
** STEP: unload_b-45
**
*Step, name=unload_b-45, nlgeom=YES, inc=1000000
*Static
0.02, 0.578619153675, 1e-07, 0.02
**
** BOUNDARY CONDITIONS
** 
** Name: BC-45 Type: Displacement/Rotation
*Boundary
Set-3, 1, 1
Set-3, 2, 2, -4.92204899777e-05
Set-3, 6, 6
** 
** CONTROLS
** 
*Controls, reset
** 
** OUTPUT REQUESTS
** 
*Restart, write, frequency=0
** 
** FIELD OUTPUT: F-Output-45
** 
*Output, field
*Node Output, nset=Set-3
RF, U
*End Step
** ----------------------------------------------------------------
** 
** STEP: load-46
**
*Step, name=load-46, nlgeom=YES, inc=1000000
*Static
0.02, 3.78619153675, 1e-07, 0.02
**
** BOUNDARY CONDITIONS
** 
** Name: BC-46 Type: Displacement/Rotation
*Boundary
Set-3, 1, 1
Set-3, 2, 2, -6.81514476615e-05
Set-3, 6, 6
** 
** CONTROLS
** 
*Controls, reset
** 
** OUTPUT REQUESTS
** 
*Restart, write, frequency=0
** 
** FIELD OUTPUT: F-Output-46
** 
*Output, field
*Node Output, nset=Set-3
RF, U
*End Step
** ----------------------------------------------------------------
** 
** STEP: unload_a-46
**
*Step, name=unload_a-46, nlgeom=YES, inc=1000000
*Static
0.005, 0.2, 1e-07, 0.005
**
** BOUNDARY CONDITIONS
** 
** Name: BC-46 Type: Displacement/Rotation
*Boundary
Set-3, 1, 1
Set-3, 2, 2, -6.71514476615e-05
Set-3, 6, 6
** 
** CONTROLS
** 
*Controls, reset
** 
** OUTPUT REQUESTS
** 
*Restart, write, frequency=0
** 
** FIELD OUTPUT: F-Output-46
** 
*Output, field
*Node Output, nset=Set-3
RF, U
*End Step
** ----------------------------------------------------------------
** 
** STEP: unload_b-46
**
*Step, name=unload_b-46, nlgeom=YES, inc=1000000
*Static
0.02, 0.767928730512, 1e-07, 0.02
**
** BOUNDARY CONDITIONS
** 
** Name: BC-46 Type: Displacement/Rotation
*Boundary
Set-3, 1, 1
Set-3, 2, 2, -6.53118040089e-05
Set-3, 6, 6
** 
** CONTROLS
** 
*Controls, reset
** 
** OUTPUT REQUESTS
** 
*Restart, write, frequency=0
** 
** FIELD OUTPUT: F-Output-46
** 
*Output, field
*Node Output, nset=Set-3
RF, U
*End Step
** ----------------------------------------------------------------
** 
** STEP: load-47
**
*Step, name=load-47, nlgeom=YES, inc=1000000
*Static
0.02, 3.78619153675, 1e-07, 0.02
**
** BOUNDARY CONDITIONS
** 
** Name: BC-47 Type: Displacement/Rotation
*Boundary
Set-3, 1, 1
Set-3, 2, 2, -8.42427616927e-05
Set-3, 6, 6
** 
** CONTROLS
** 
*Controls, reset
** 
** OUTPUT REQUESTS
** 
*Restart, write, frequency=0
** 
** FIELD OUTPUT: F-Output-47
** 
*Output, field
*Node Output, nset=Set-3
RF, U
*End Step
** ----------------------------------------------------------------
** 
** STEP: unload_a-47
**
*Step, name=unload_a-47, nlgeom=YES, inc=1000000
*Static
0.005, 0.2, 1e-07, 0.005
**
** BOUNDARY CONDITIONS
** 
** Name: BC-47 Type: Displacement/Rotation
*Boundary
Set-3, 1, 1
Set-3, 2, 2, -8.32427616927e-05
Set-3, 6, 6
** 
** CONTROLS
** 
*Controls, reset
** 
** OUTPUT REQUESTS
** 
*Restart, write, frequency=0
** 
** FIELD OUTPUT: F-Output-47
** 
*Output, field
*Node Output, nset=Set-3
RF, U
*End Step
** ----------------------------------------------------------------
** 
** STEP: unload_b-47
**
*Step, name=unload_b-47, nlgeom=YES, inc=1000000
*Static
0.02, 0.767928730512, 1e-07, 0.02
**
** BOUNDARY CONDITIONS
** 
** Name: BC-47 Type: Displacement/Rotation
*Boundary
Set-3, 1, 1
Set-3, 2, 2, -8.14031180401e-05
Set-3, 6, 6
** 
** CONTROLS
** 
*Controls, reset
** 
** OUTPUT REQUESTS
** 
*Restart, write, frequency=0
** 
** FIELD OUTPUT: F-Output-47
** 
*Output, field
*Node Output, nset=Set-3
RF, U
*End Step
** ----------------------------------------------------------------
** 
** STEP: load-48
**
*Step, name=load-48, nlgeom=YES, inc=1000000
*Static
0.02, 3.78619153675, 1e-07, 0.02
**
** BOUNDARY CONDITIONS
** 
** Name: BC-48 Type: Displacement/Rotation
*Boundary
Set-3, 1, 1
Set-3, 2, 2, -0.000100334075724
Set-3, 6, 6
** 
** CONTROLS
** 
*Controls, reset
** 
** OUTPUT REQUESTS
** 
*Restart, write, frequency=0
** 
** FIELD OUTPUT: F-Output-48
** 
*Output, field
*Node Output, nset=Set-3
RF, U
*End Step
** ----------------------------------------------------------------
** 
** STEP: unload_a-48
**
*Step, name=unload_a-48, nlgeom=YES, inc=1000000
*Static
0.005, 0.2, 1e-07, 0.005
**
** BOUNDARY CONDITIONS
** 
** Name: BC-48 Type: Displacement/Rotation
*Boundary
Set-3, 1, 1
Set-3, 2, 2, -9.93340757238e-05
Set-3, 6, 6
** 
** CONTROLS
** 
*Controls, reset
** 
** OUTPUT REQUESTS
** 
*Restart, write, frequency=0
** 
** FIELD OUTPUT: F-Output-48
** 
*Output, field
*Node Output, nset=Set-3
RF, U
*End Step
** ----------------------------------------------------------------
** 
** STEP: unload_b-48
**
*Step, name=unload_b-48, nlgeom=YES, inc=1000000
*Static
0.02, 0.767928730512, 1e-07, 0.02
**
** BOUNDARY CONDITIONS
** 
** Name: BC-48 Type: Displacement/Rotation
*Boundary
Set-3, 1, 1
Set-3, 2, 2, -9.74944320713e-05
Set-3, 6, 6
** 
** CONTROLS
** 
*Controls, reset
** 
** OUTPUT REQUESTS
** 
*Restart, write, frequency=0
** 
** FIELD OUTPUT: F-Output-48
** 
*Output, field
*Node Output, nset=Set-3
RF, U
*End Step
** ----------------------------------------------------------------
** 
** STEP: load-49
**
*Step, name=load-49, nlgeom=YES, inc=1000000
*Static
0.02, 3.78619153675, 1e-07, 0.02
**
** BOUNDARY CONDITIONS
** 
** Name: BC-49 Type: Displacement/Rotation
*Boundary
Set-3, 1, 1
Set-3, 2, 2, -0.000116425389755
Set-3, 6, 6
** 
** CONTROLS
** 
*Controls, reset
** 
** OUTPUT REQUESTS
** 
*Restart, write, frequency=0
** 
** FIELD OUTPUT: F-Output-49
** 
*Output, field
*Node Output, nset=Set-3
RF, U
*End Step
** ----------------------------------------------------------------
** 
** STEP: unload_a-49
**
*Step, name=unload_a-49, nlgeom=YES, inc=1000000
*Static
0.005, 0.2, 1e-07, 0.005
**
** BOUNDARY CONDITIONS
** 
** Name: BC-49 Type: Displacement/Rotation
*Boundary
Set-3, 1, 1
Set-3, 2, 2, -0.000115425389755
Set-3, 6, 6
** 
** CONTROLS
** 
*Controls, reset
** 
** OUTPUT REQUESTS
** 
*Restart, write, frequency=0
** 
** FIELD OUTPUT: F-Output-49
** 
*Output, field
*Node Output, nset=Set-3
RF, U
*End Step
** ----------------------------------------------------------------
** 
** STEP: unload_b-49
**
*Step, name=unload_b-49, nlgeom=YES, inc=1000000
*Static
0.02, 0.767928730512, 1e-07, 0.02
**
** BOUNDARY CONDITIONS
** 
** Name: BC-49 Type: Displacement/Rotation
*Boundary
Set-3, 1, 1
Set-3, 2, 2, -0.000113585746102
Set-3, 6, 6
** 
** CONTROLS
** 
*Controls, reset
** 
** OUTPUT REQUESTS
** 
*Restart, write, frequency=0
** 
** FIELD OUTPUT: F-Output-49
** 
*Output, field
*Node Output, nset=Set-3
RF, U
*End Step
** ----------------------------------------------------------------
** 
** STEP: load-50
**
*Step, name=load-50, nlgeom=YES, inc=1000000
*Static
0.02, 3.78619153675, 1e-07, 0.02
**
** BOUNDARY CONDITIONS
** 
** Name: BC-50 Type: Displacement/Rotation
*Boundary
Set-3, 1, 1
Set-3, 2, 2, -0.000132516703786
Set-3, 6, 6
** 
** CONTROLS
** 
*Controls, reset
** 
** OUTPUT REQUESTS
** 
*Restart, write, frequency=0
** 
** FIELD OUTPUT: F-Output-50
** 
*Output, field
*Node Output, nset=Set-3
RF, U
*End Step
** ----------------------------------------------------------------
** 
** STEP: unload_a-50
**
*Step, name=unload_a-50, nlgeom=YES, inc=1000000
*Static
0.005, 0.2, 1e-07, 0.005
**
** BOUNDARY CONDITIONS
** 
** Name: BC-50 Type: Displacement/Rotation
*Boundary
Set-3, 1, 1
Set-3, 2, 2, -0.000131516703786
Set-3, 6, 6
** 
** CONTROLS
** 
*Controls, reset
** 
** OUTPUT REQUESTS
** 
*Restart, write, frequency=0
** 
** FIELD OUTPUT: F-Output-50
** 
*Output, field
*Node Output, nset=Set-3
RF, U
*End Step
** ----------------------------------------------------------------
** 
** STEP: unload_b-50
**
*Step, name=unload_b-50, nlgeom=YES, inc=1000000
*Static
0.02, 0.767928730512, 1e-07, 0.02
**
** BOUNDARY CONDITIONS
** 
** Name: BC-50 Type: Displacement/Rotation
*Boundary
Set-3, 1, 1
Set-3, 2, 2, -0.000129677060134
Set-3, 6, 6
** 
** CONTROLS
** 
*Controls, reset
** 
** OUTPUT REQUESTS
** 
*Restart, write, frequency=0
** 
** FIELD OUTPUT: F-Output-50
** 
*Output, field
*Node Output, nset=Set-3
RF, U
*End Step
** ----------------------------------------------------------------
** 
** STEP: load-51
**
*Step, name=load-51, nlgeom=YES, inc=1000000
*Static
0.02, 3.78619153675, 1e-07, 0.02
**
** BOUNDARY CONDITIONS
** 
** Name: BC-51 Type: Displacement/Rotation
*Boundary
Set-3, 1, 1
Set-3, 2, 2, -0.000148608017817
Set-3, 6, 6
** 
** CONTROLS
** 
*Controls, reset
** 
** OUTPUT REQUESTS
** 
*Restart, write, frequency=0
** 
** FIELD OUTPUT: F-Output-51
** 
*Output, field
*Node Output, nset=Set-3
RF, U
*End Step
** ----------------------------------------------------------------
** 
** STEP: unload_a-51
**
*Step, name=unload_a-51, nlgeom=YES, inc=1000000
*Static
0.005, 0.2, 1e-07, 0.005
**
** BOUNDARY CONDITIONS
** 
** Name: BC-51 Type: Displacement/Rotation
*Boundary
Set-3, 1, 1
Set-3, 2, 2, -0.000147608017817
Set-3, 6, 6
** 
** CONTROLS
** 
*Controls, reset
** 
** OUTPUT REQUESTS
** 
*Restart, write, frequency=0
** 
** FIELD OUTPUT: F-Output-51
** 
*Output, field
*Node Output, nset=Set-3
RF, U
*End Step
** ----------------------------------------------------------------
** 
** STEP: unload_b-51
**
*Step, name=unload_b-51, nlgeom=YES, inc=1000000
*Static
0.02, 0.767928730512, 1e-07, 0.02
**
** BOUNDARY CONDITIONS
** 
** Name: BC-51 Type: Displacement/Rotation
*Boundary
Set-3, 1, 1
Set-3, 2, 2, -0.000145768374165
Set-3, 6, 6
** 
** CONTROLS
** 
*Controls, reset
** 
** OUTPUT REQUESTS
** 
*Restart, write, frequency=0
** 
** FIELD OUTPUT: F-Output-51
** 
*Output, field
*Node Output, nset=Set-3
RF, U
*End Step
** ----------------------------------------------------------------
** 
** STEP: load-52
**
*Step, name=load-52, nlgeom=YES, inc=1000000
*Static
0.02, 11.3585746102, 1e-07, 0.02
**
** BOUNDARY CONDITIONS
** 
** Name: BC-52 Type: Displacement/Rotation
*Boundary
Set-3, 1, 1
Set-3, 2, 2, -0.000202561247216
Set-3, 6, 6
** 
** CONTROLS
** 
*Controls, reset
** 
** OUTPUT REQUESTS
** 
*Restart, write, frequency=0
** 
** FIELD OUTPUT: F-Output-52
** 
*Output, field
*Node Output, nset=Set-3
RF, U
*End Step
** ----------------------------------------------------------------
** 
** STEP: unload_a-52
**
*Step, name=unload_a-52, nlgeom=YES, inc=1000000
*Static
0.005, 0.2, 1e-07, 0.005
**
** BOUNDARY CONDITIONS
** 
** Name: BC-52 Type: Displacement/Rotation
*Boundary
Set-3, 1, 1
Set-3, 2, 2, -0.000201561247216
Set-3, 6, 6
** 
** CONTROLS
** 
*Controls, reset
** 
** OUTPUT REQUESTS
** 
*Restart, write, frequency=0
** 
** FIELD OUTPUT: F-Output-52
** 
*Output, field
*Node Output, nset=Set-3
RF, U
*End Step
** ----------------------------------------------------------------
** 
** STEP: unload_b-52
**
*Step, name=unload_b-52, nlgeom=YES, inc=1000000
*Static
0.02, 0.767928730512, 1e-07, 0.02
**
** BOUNDARY CONDITIONS
** 
** Name: BC-52 Type: Displacement/Rotation
*Boundary
Set-3, 1, 1
Set-3, 2, 2, -0.000199721603563
Set-3, 6, 6
** 
** CONTROLS
** 
*Controls, reset
** 
** OUTPUT REQUESTS
** 
*Restart, write, frequency=0
** 
** FIELD OUTPUT: F-Output-52
** 
*Output, field
*Node Output, nset=Set-3
RF, U
*End Step
** ----------------------------------------------------------------
** 
** STEP: load-53
**
*Step, name=load-53, nlgeom=YES, inc=1000000
*Static
0.02, 11.3585746102, 1e-07, 0.02
**
** BOUNDARY CONDITIONS
** 
** Name: BC-53 Type: Displacement/Rotation
*Boundary
Set-3, 1, 1
Set-3, 2, 2, -0.000256514476615
Set-3, 6, 6
** 
** CONTROLS
** 
*Controls, reset
** 
** OUTPUT REQUESTS
** 
*Restart, write, frequency=0
** 
** FIELD OUTPUT: F-Output-53
** 
*Output, field
*Node Output, nset=Set-3
RF, U
*End Step
** ----------------------------------------------------------------
** 
** STEP: unload_a-53
**
*Step, name=unload_a-53, nlgeom=YES, inc=1000000
*Static
0.005, 0.2, 1e-07, 0.005
**
** BOUNDARY CONDITIONS
** 
** Name: BC-53 Type: Displacement/Rotation
*Boundary
Set-3, 1, 1
Set-3, 2, 2, -0.000255514476615
Set-3, 6, 6
** 
** CONTROLS
** 
*Controls, reset
** 
** OUTPUT REQUESTS
** 
*Restart, write, frequency=0
** 
** FIELD OUTPUT: F-Output-53
** 
*Output, field
*Node Output, nset=Set-3
RF, U
*End Step
** ----------------------------------------------------------------
** 
** STEP: unload_b-53
**
*Step, name=unload_b-53, nlgeom=YES, inc=1000000
*Static
0.02, 0.767928730512, 1e-07, 0.02
**
** BOUNDARY CONDITIONS
** 
** Name: BC-53 Type: Displacement/Rotation
*Boundary
Set-3, 1, 1
Set-3, 2, 2, -0.000253674832962
Set-3, 6, 6
** 
** CONTROLS
** 
*Controls, reset
** 
** OUTPUT REQUESTS
** 
*Restart, write, frequency=0
** 
** FIELD OUTPUT: F-Output-53
** 
*Output, field
*Node Output, nset=Set-3
RF, U
*End Step
** ----------------------------------------------------------------
** 
** STEP: load-54
**
*Step, name=load-54, nlgeom=YES, inc=1000000
*Static
0.02, 11.3585746102, 1e-07, 0.02
**
** BOUNDARY CONDITIONS
** 
** Name: BC-54 Type: Displacement/Rotation
*Boundary
Set-3, 1, 1
Set-3, 2, 2, -0.000310467706013
Set-3, 6, 6
** 
** CONTROLS
** 
*Controls, reset
** 
** OUTPUT REQUESTS
** 
*Restart, write, frequency=0
** 
** FIELD OUTPUT: F-Output-54
** 
*Output, field
*Node Output, nset=Set-3
RF, U
*End Step
** ----------------------------------------------------------------
** 
** STEP: unload_a-54
**
*Step, name=unload_a-54, nlgeom=YES, inc=1000000
*Static
0.005, 0.2, 1e-07, 0.005
**
** BOUNDARY CONDITIONS
** 
** Name: BC-54 Type: Displacement/Rotation
*Boundary
Set-3, 1, 1
Set-3, 2, 2, -0.000309467706013
Set-3, 6, 6
** 
** CONTROLS
** 
*Controls, reset
** 
** OUTPUT REQUESTS
** 
*Restart, write, frequency=0
** 
** FIELD OUTPUT: F-Output-54
** 
*Output, field
*Node Output, nset=Set-3
RF, U
*End Step
** ----------------------------------------------------------------
** 
** STEP: unload_b-54
**
*Step, name=unload_b-54, nlgeom=YES, inc=1000000
*Static
0.02, 0.767928730512, 1e-07, 0.02
**
** BOUNDARY CONDITIONS
** 
** Name: BC-54 Type: Displacement/Rotation
*Boundary
Set-3, 1, 1
Set-3, 2, 2, -0.000307628062361
Set-3, 6, 6
** 
** CONTROLS
** 
*Controls, reset
** 
** OUTPUT REQUESTS
** 
*Restart, write, frequency=0
** 
** FIELD OUTPUT: F-Output-54
** 
*Output, field
*Node Output, nset=Set-3
RF, U
*End Step
** ----------------------------------------------------------------
** 
** STEP: load-55
**
*Step, name=load-55, nlgeom=YES, inc=1000000
*Static
0.02, 11.3585746102, 1e-07, 0.02
**
** BOUNDARY CONDITIONS
** 
** Name: BC-55 Type: Displacement/Rotation
*Boundary
Set-3, 1, 1
Set-3, 2, 2, -0.000364420935412
Set-3, 6, 6
** 
** CONTROLS
** 
*Controls, reset
** 
** OUTPUT REQUESTS
** 
*Restart, write, frequency=0
** 
** FIELD OUTPUT: F-Output-55
** 
*Output, field
*Node Output, nset=Set-3
RF, U
*End Step
** ----------------------------------------------------------------
** 
** STEP: unload_a-55
**
*Step, name=unload_a-55, nlgeom=YES, inc=1000000
*Static
0.005, 0.2, 1e-07, 0.005
**
** BOUNDARY CONDITIONS
** 
** Name: BC-55 Type: Displacement/Rotation
*Boundary
Set-3, 1, 1
Set-3, 2, 2, -0.000363420935412
Set-3, 6, 6
** 
** CONTROLS
** 
*Controls, reset
** 
** OUTPUT REQUESTS
** 
*Restart, write, frequency=0
** 
** FIELD OUTPUT: F-Output-55
** 
*Output, field
*Node Output, nset=Set-3
RF, U
*End Step
** ----------------------------------------------------------------
** 
** STEP: unload_b-55
**
*Step, name=unload_b-55, nlgeom=YES, inc=1000000
*Static
0.02, 0.767928730512, 1e-07, 0.02
**
** BOUNDARY CONDITIONS
** 
** Name: BC-55 Type: Displacement/Rotation
*Boundary
Set-3, 1, 1
Set-3, 2, 2, -0.000361581291759
Set-3, 6, 6
** 
** CONTROLS
** 
*Controls, reset
** 
** OUTPUT REQUESTS
** 
*Restart, write, frequency=0
** 
** FIELD OUTPUT: F-Output-55
** 
*Output, field
*Node Output, nset=Set-3
RF, U
*End Step
** ----------------------------------------------------------------
** 
** STEP: load-56
**
*Step, name=load-56, nlgeom=YES, inc=1000000
*Static
0.02, 11.3585746102, 1e-07, 0.02
**
** BOUNDARY CONDITIONS
** 
** Name: BC-56 Type: Displacement/Rotation
*Boundary
Set-3, 1, 1
Set-3, 2, 2, -0.000418374164811
Set-3, 6, 6
** 
** CONTROLS
** 
*Controls, reset
** 
** OUTPUT REQUESTS
** 
*Restart, write, frequency=0
** 
** FIELD OUTPUT: F-Output-56
** 
*Output, field
*Node Output, nset=Set-3
RF, U
*End Step
** ----------------------------------------------------------------
** 
** STEP: unload_a-56
**
*Step, name=unload_a-56, nlgeom=YES, inc=1000000
*Static
0.005, 0.2, 1e-07, 0.005
**
** BOUNDARY CONDITIONS
** 
** Name: BC-56 Type: Displacement/Rotation
*Boundary
Set-3, 1, 1
Set-3, 2, 2, -0.000417374164811
Set-3, 6, 6
** 
** CONTROLS
** 
*Controls, reset
** 
** OUTPUT REQUESTS
** 
*Restart, write, frequency=0
** 
** FIELD OUTPUT: F-Output-56
** 
*Output, field
*Node Output, nset=Set-3
RF, U
*End Step
** ----------------------------------------------------------------
** 
** STEP: unload_b-56
**
*Step, name=unload_b-56, nlgeom=YES, inc=1000000
*Static
0.02, 0.767928730512, 1e-07, 0.02
**
** BOUNDARY CONDITIONS
** 
** Name: BC-56 Type: Displacement/Rotation
*Boundary
Set-3, 1, 1
Set-3, 2, 2, -0.000415534521158
Set-3, 6, 6
** 
** CONTROLS
** 
*Controls, reset
** 
** OUTPUT REQUESTS
** 
*Restart, write, frequency=0
** 
** FIELD OUTPUT: F-Output-56
** 
*Output, field
*Node Output, nset=Set-3
RF, U
*End Step
** ----------------------------------------------------------------
** 
** STEP: load-57
**
*Step, name=load-57, nlgeom=YES, inc=1000000
*Static
0.02, 11.3585746102, 1e-07, 0.02
**
** BOUNDARY CONDITIONS
** 
** Name: BC-57 Type: Displacement/Rotation
*Boundary
Set-3, 1, 1
Set-3, 2, 2, -0.000472327394209
Set-3, 6, 6
** 
** CONTROLS
** 
*Controls, reset
** 
** OUTPUT REQUESTS
** 
*Restart, write, frequency=0
** 
** FIELD OUTPUT: F-Output-57
** 
*Output, field
*Node Output, nset=Set-3
RF, U
*End Step
** ----------------------------------------------------------------
** 
** STEP: unload_a-57
**
*Step, name=unload_a-57, nlgeom=YES, inc=1000000
*Static
0.005, 0.2, 1e-07, 0.005
**
** BOUNDARY CONDITIONS
** 
** Name: BC-57 Type: Displacement/Rotation
*Boundary
Set-3, 1, 1
Set-3, 2, 2, -0.000471327394209
Set-3, 6, 6
** 
** CONTROLS
** 
*Controls, reset
** 
** OUTPUT REQUESTS
** 
*Restart, write, frequency=0
** 
** FIELD OUTPUT: F-Output-57
** 
*Output, field
*Node Output, nset=Set-3
RF, U
*End Step
** ----------------------------------------------------------------
** 
** STEP: unload_b-57
**
*Step, name=unload_b-57, nlgeom=YES, inc=1000000
*Static
0.02, 0.767928730512, 1e-07, 0.02
**
** BOUNDARY CONDITIONS
** 
** Name: BC-57 Type: Displacement/Rotation
*Boundary
Set-3, 1, 1
Set-3, 2, 2, -0.000469487750557
Set-3, 6, 6
** 
** CONTROLS
** 
*Controls, reset
** 
** OUTPUT REQUESTS
** 
*Restart, write, frequency=0
** 
** FIELD OUTPUT: F-Output-57
** 
*Output, field
*Node Output, nset=Set-3
RF, U
*End Step
** ----------------------------------------------------------------
** 
** STEP: load-58
**
*Step, name=load-58, nlgeom=YES, inc=1000000
*Static
0.02, 11.3585746102, 1e-07, 0.02
**
** BOUNDARY CONDITIONS
** 
** Name: BC-58 Type: Displacement/Rotation
*Boundary
Set-3, 1, 1
Set-3, 2, 2, -0.000526280623608
Set-3, 6, 6
** 
** CONTROLS
** 
*Controls, reset
** 
** OUTPUT REQUESTS
** 
*Restart, write, frequency=0
** 
** FIELD OUTPUT: F-Output-58
** 
*Output, field
*Node Output, nset=Set-3
RF, U
*End Step
** ----------------------------------------------------------------
** 
** STEP: unload_a-58
**
*Step, name=unload_a-58, nlgeom=YES, inc=1000000
*Static
0.005, 0.2, 1e-07, 0.005
**
** BOUNDARY CONDITIONS
** 
** Name: BC-58 Type: Displacement/Rotation
*Boundary
Set-3, 1, 1
Set-3, 2, 2, -0.000525280623608
Set-3, 6, 6
** 
** CONTROLS
** 
*Controls, reset
** 
** OUTPUT REQUESTS
** 
*Restart, write, frequency=0
** 
** FIELD OUTPUT: F-Output-58
** 
*Output, field
*Node Output, nset=Set-3
RF, U
*End Step
** ----------------------------------------------------------------
** 
** STEP: unload_b-58
**
*Step, name=unload_b-58, nlgeom=YES, inc=1000000
*Static
0.02, 0.767928730512, 1e-07, 0.02
**
** BOUNDARY CONDITIONS
** 
** Name: BC-58 Type: Displacement/Rotation
*Boundary
Set-3, 1, 1
Set-3, 2, 2, -0.000523440979955
Set-3, 6, 6
** 
** CONTROLS
** 
*Controls, reset
** 
** OUTPUT REQUESTS
** 
*Restart, write, frequency=0
** 
** FIELD OUTPUT: F-Output-58
** 
*Output, field
*Node Output, nset=Set-3
RF, U
*End Step
** ----------------------------------------------------------------
** 
** STEP: load-59
**
*Step, name=load-59, nlgeom=YES, inc=1000000
*Static
0.02, 11.3585746102, 1e-07, 0.02
**
** BOUNDARY CONDITIONS
** 
** Name: BC-59 Type: Displacement/Rotation
*Boundary
Set-3, 1, 1
Set-3, 2, 2, -0.000580233853007
Set-3, 6, 6
** 
** CONTROLS
** 
*Controls, reset
** 
** OUTPUT REQUESTS
** 
*Restart, write, frequency=0
** 
** FIELD OUTPUT: F-Output-59
** 
*Output, field
*Node Output, nset=Set-3
RF, U
*End Step
** ----------------------------------------------------------------
** 
** STEP: unload_a-59
**
*Step, name=unload_a-59, nlgeom=YES, inc=1000000
*Static
0.005, 0.2, 1e-07, 0.005
**
** BOUNDARY CONDITIONS
** 
** Name: BC-59 Type: Displacement/Rotation
*Boundary
Set-3, 1, 1
Set-3, 2, 2, -0.000579233853007
Set-3, 6, 6
** 
** CONTROLS
** 
*Controls, reset
** 
** OUTPUT REQUESTS
** 
*Restart, write, frequency=0
** 
** FIELD OUTPUT: F-Output-59
** 
*Output, field
*Node Output, nset=Set-3
RF, U
*End Step
** ----------------------------------------------------------------
** 
** STEP: unload_b-59
**
*Step, name=unload_b-59, nlgeom=YES, inc=1000000
*Static
0.02, 0.767928730512, 1e-07, 0.02
**
** BOUNDARY CONDITIONS
** 
** Name: BC-59 Type: Displacement/Rotation
*Boundary
Set-3, 1, 1
Set-3, 2, 2, -0.000577394209354
Set-3, 6, 6
** 
** CONTROLS
** 
*Controls, reset
** 
** OUTPUT REQUESTS
** 
*Restart, write, frequency=0
** 
** FIELD OUTPUT: F-Output-59
** 
*Output, field
*Node Output, nset=Set-3
RF, U
*End Step
** ----------------------------------------------------------------
** 
** STEP: load-60
**
*Step, name=load-60, nlgeom=YES, inc=1000000
*Static
0.02, 11.3585746102, 1e-07, 0.02
**
** BOUNDARY CONDITIONS
** 
** Name: BC-60 Type: Displacement/Rotation
*Boundary
Set-3, 1, 1
Set-3, 2, 2, -0.000634187082405
Set-3, 6, 6
** 
** CONTROLS
** 
*Controls, reset
** 
** OUTPUT REQUESTS
** 
*Restart, write, frequency=0
** 
** FIELD OUTPUT: F-Output-60
** 
*Output, field
*Node Output, nset=Set-3
RF, U
*End Step
** ----------------------------------------------------------------
** 
** STEP: unload_a-60
**
*Step, name=unload_a-60, nlgeom=YES, inc=1000000
*Static
0.005, 0.2, 1e-07, 0.005
**
** BOUNDARY CONDITIONS
** 
** Name: BC-60 Type: Displacement/Rotation
*Boundary
Set-3, 1, 1
Set-3, 2, 2, -0.000633187082405
Set-3, 6, 6
** 
** CONTROLS
** 
*Controls, reset
** 
** OUTPUT REQUESTS
** 
*Restart, write, frequency=0
** 
** FIELD OUTPUT: F-Output-60
** 
*Output, field
*Node Output, nset=Set-3
RF, U
*End Step
** ----------------------------------------------------------------
** 
** STEP: unload_b-60
**
*Step, name=unload_b-60, nlgeom=YES, inc=1000000
*Static
0.02, 0.767928730512, 1e-07, 0.02
**
** BOUNDARY CONDITIONS
** 
** Name: BC-60 Type: Displacement/Rotation
*Boundary
Set-3, 1, 1
Set-3, 2, 2, -0.000631347438753
Set-3, 6, 6
** 
** CONTROLS
** 
*Controls, reset
** 
** OUTPUT REQUESTS
** 
*Restart, write, frequency=0
** 
** FIELD OUTPUT: F-Output-60
** 
*Output, field
*Node Output, nset=Set-3
RF, U
*End Step
** ----------------------------------------------------------------
** 
** STEP: load-61
**
*Step, name=load-61, nlgeom=YES, inc=1000000
*Static
0.02, 11.3585746102, 1e-07, 0.02
**
** BOUNDARY CONDITIONS
** 
** Name: BC-61 Type: Displacement/Rotation
*Boundary
Set-3, 1, 1
Set-3, 2, 2, -0.000688140311804
Set-3, 6, 6
** 
** CONTROLS
** 
*Controls, reset
** 
** OUTPUT REQUESTS
** 
*Restart, write, frequency=0
** 
** FIELD OUTPUT: F-Output-61
** 
*Output, field
*Node Output, nset=Set-3
RF, U
*End Step
** ----------------------------------------------------------------
** 
** STEP: unload_a-61
**
*Step, name=unload_a-61, nlgeom=YES, inc=1000000
*Static
0.005, 0.2, 1e-07, 0.005
**
** BOUNDARY CONDITIONS
** 
** Name: BC-61 Type: Displacement/Rotation
*Boundary
Set-3, 1, 1
Set-3, 2, 2, -0.000687140311804
Set-3, 6, 6
** 
** CONTROLS
** 
*Controls, reset
** 
** OUTPUT REQUESTS
** 
*Restart, write, frequency=0
** 
** FIELD OUTPUT: F-Output-61
** 
*Output, field
*Node Output, nset=Set-3
RF, U
*End Step
** ----------------------------------------------------------------
** 
** STEP: unload_b-61
**
*Step, name=unload_b-61, nlgeom=YES, inc=1000000
*Static
0.02, 0.767928730512, 1e-07, 0.02
**
** BOUNDARY CONDITIONS
** 
** Name: BC-61 Type: Displacement/Rotation
*Boundary
Set-3, 1, 1
Set-3, 2, 2, -0.000685300668151
Set-3, 6, 6
** 
** CONTROLS
** 
*Controls, reset
** 
** OUTPUT REQUESTS
** 
*Restart, write, frequency=0
** 
** FIELD OUTPUT: F-Output-61
** 
*Output, field
*Node Output, nset=Set-3
RF, U
*End Step
** ----------------------------------------------------------------
** 
** STEP: load-62
**
*Step, name=load-62, nlgeom=YES, inc=1000000
*Static
0.02, 11.3585746102, 1e-07, 0.02
**
** BOUNDARY CONDITIONS
** 
** Name: BC-62 Type: Displacement/Rotation
*Boundary
Set-3, 1, 1
Set-3, 2, 2, -0.000742093541203
Set-3, 6, 6
** 
** CONTROLS
** 
*Controls, reset
** 
** OUTPUT REQUESTS
** 
*Restart, write, frequency=0
** 
** FIELD OUTPUT: F-Output-62
** 
*Output, field
*Node Output, nset=Set-3
RF, U
*End Step
** ----------------------------------------------------------------
** 
** STEP: unload_a-62
**
*Step, name=unload_a-62, nlgeom=YES, inc=1000000
*Static
0.005, 0.2, 1e-07, 0.005
**
** BOUNDARY CONDITIONS
** 
** Name: BC-62 Type: Displacement/Rotation
*Boundary
Set-3, 1, 1
Set-3, 2, 2, -0.000741093541203
Set-3, 6, 6
** 
** CONTROLS
** 
*Controls, reset
** 
** OUTPUT REQUESTS
** 
*Restart, write, frequency=0
** 
** FIELD OUTPUT: F-Output-62
** 
*Output, field
*Node Output, nset=Set-3
RF, U
*End Step
** ----------------------------------------------------------------
** 
** STEP: unload_b-62
**
*Step, name=unload_b-62, nlgeom=YES, inc=1000000
*Static
0.02, 0.767928730512, 1e-07, 0.02
**
** BOUNDARY CONDITIONS
** 
** Name: BC-62 Type: Displacement/Rotation
*Boundary
Set-3, 1, 1
Set-3, 2, 2, -0.00073925389755
Set-3, 6, 6
** 
** CONTROLS
** 
*Controls, reset
** 
** OUTPUT REQUESTS
** 
*Restart, write, frequency=0
** 
** FIELD OUTPUT: F-Output-62
** 
*Output, field
*Node Output, nset=Set-3
RF, U
*End Step
** ----------------------------------------------------------------
** 
** STEP: load-63
**
*Step, name=load-63, nlgeom=YES, inc=1000000
*Static
0.02, 11.3585746102, 1e-07, 0.02
**
** BOUNDARY CONDITIONS
** 
** Name: BC-63 Type: Displacement/Rotation
*Boundary
Set-3, 1, 1
Set-3, 2, 2, -0.000796046770601
Set-3, 6, 6
** 
** CONTROLS
** 
*Controls, reset
** 
** OUTPUT REQUESTS
** 
*Restart, write, frequency=0
** 
** FIELD OUTPUT: F-Output-63
** 
*Output, field
*Node Output, nset=Set-3
RF, U
*End Step
** ----------------------------------------------------------------
** 
** STEP: unload_a-63
**
*Step, name=unload_a-63, nlgeom=YES, inc=1000000
*Static
0.005, 0.2, 1e-07, 0.005
**
** BOUNDARY CONDITIONS
** 
** Name: BC-63 Type: Displacement/Rotation
*Boundary
Set-3, 1, 1
Set-3, 2, 2, -0.000795046770601
Set-3, 6, 6
** 
** CONTROLS
** 
*Controls, reset
** 
** OUTPUT REQUESTS
** 
*Restart, write, frequency=0
** 
** FIELD OUTPUT: F-Output-63
** 
*Output, field
*Node Output, nset=Set-3
RF, U
*End Step
** ----------------------------------------------------------------
** 
** STEP: unload_b-63
**
*Step, name=unload_b-63, nlgeom=YES, inc=1000000
*Static
0.02, 0.767928730512, 1e-07, 0.02
**
** BOUNDARY CONDITIONS
** 
** Name: BC-63 Type: Displacement/Rotation
*Boundary
Set-3, 1, 1
Set-3, 2, 2, -0.000793207126949
Set-3, 6, 6
** 
** CONTROLS
** 
*Controls, reset
** 
** OUTPUT REQUESTS
** 
*Restart, write, frequency=0
** 
** FIELD OUTPUT: F-Output-63
** 
*Output, field
*Node Output, nset=Set-3
RF, U
*End Step
